72936
  -OEChem-05272506583D

 59 61  0     1  0  0  0  0  0999 V2000
   -0.2591    0.8768   -0.6172 O   0  0  0  0  0  0  0  0  0  0  0  0
    4.4417    0.2329   -0.9570 O   0  0  0  0  0  0  0  0  0  0  0  0
    0.2649    4.6084    1.0050 O   0  0  0  0  0  0  0  0  0  0  0  0
    2.8467    4.2742    0.9354 O   0  0  0  0  0  0  0  0  0  0  0  0
   -3.3148    0.9422    2.1840 O   0  0  0  0  0  0  0  0  0  0  0  0
   -6.2812   -0.7515   -1.1392 O   0  0  0  0  0  0  0  0  0  0  0  0
    1.7388   -1.9342   -0.4027 C   0  0  1  0  0  0  0  0  0  0  0  0
    1.8231   -0.7692   -1.4198 C   0  0  0  0  0  0  0  0  0  0  0  0
    2.0700    0.5697   -0.7881 C   0  0  0  0  0  0  0  0  0  0  0  0
    0.9993    1.3722   -0.3918 C   0  0  0  0  0  0  0  0  0  0  0  0
   -1.2474    1.4418    0.2584 C   0  0  1  0  0  0  0  0  0  0  0  0
   -1.2634    2.9657    0.1557 C   0  0  0  0  0  0  0  0  0  0  0  0
    1.2435    2.6258    0.1768 C   0  0  0  0  0  0  0  0  0  0  0  0
    0.8980   -3.0886   -1.0033 C   0  0  0  0  0  0  0  0  0  0  0  0
    0.0995    3.4972    0.5157 C   0  0  0  0  0  0  0  0  0  0  0  0
    3.1159   -2.3958    0.0723 C   0  0  0  0  0  0  0  0  0  0  0  0
    3.3795    1.0068   -0.5862 C   0  0  0  0  0  0  0  0  0  0  0  0
   -2.5966    0.8561   -0.1014 C   0  0  0  0  0  0  0  0  0  0  0  0
    2.5540    3.0648    0.3812 C   0  0  0  0  0  0  0  0  0  0  0  0
    3.6206    2.2491    0.0016 C   0  0  0  0  0  0  0  0  0  0  0  0
    0.6795   -4.2159   -0.0287 C   0  0  0  0  0  0  0  0  0  0  0  0
    4.0828   -2.9518   -0.9369 C   0  0  0  0  0  0  0  0  0  0  0  0
   -3.5637    0.6351    0.8801 C   0  0  0  0  0  0  0  0  0  0  0  0
   -2.8694    0.5363   -1.4320 C   0  0  0  0  0  0  0  0  0  0  0  0
    3.4608   -2.3069    1.3679 C   0  0  0  0  0  0  0  0  0  0  0  0
   -0.2722   -4.3322    0.9167 C   0  0  0  0  0  0  0  0  0  0  0  0
   -4.8015    0.0951    0.5314 C   0  0  0  0  0  0  0  0  0  0  0  0
   -4.1072   -0.0037   -1.7805 C   0  0  0  0  0  0  0  0  0  0  0  0
   -5.0734   -0.2244   -0.7989 C   0  0  0  0  0  0  0  0  0  0  0  0
   -0.3263   -5.5567    1.7920 C   0  0  0  0  0  0  0  0  0  0  0  0
   -1.3423   -3.3194    1.2097 C   0  0  0  0  0  0  0  0  0  0  0  0
    1.1770   -1.5655    0.4687 H   0  0  0  0  0  0  0  0  0  0  0  0
    0.8874   -0.7159   -1.9929 H   0  0  0  0  0  0  0  0  0  0  0  0
    2.5720   -0.9650   -2.1966 H   0  0  0  0  0  0  0  0  0  0  0  0
   -0.9846    1.1249    1.2780 H   0  0  0  0  0  0  0  0  0  0  0  0
   -2.0015    3.3900    0.8452 H   0  0  0  0  0  0  0  0  0  0  0  0
   -1.4935    3.3034   -0.8617 H   0  0  0  0  0  0  0  0  0  0  0  0
    1.3762   -3.4887   -1.9061 H   0  0  0  0  0  0  0  0  0  0  0  0
   -0.0749   -2.7054   -1.3357 H   0  0  0  0  0  0  0  0  0  0  0  0
    4.6407    2.5917    0.1601 H   0  0  0  0  0  0  0  0  0  0  0  0
    1.4012   -5.0266   -0.1254 H   0  0  0  0  0  0  0  0  0  0  0  0
    3.6867   -3.8709   -1.3796 H   0  0  0  0  0  0  0  0  0  0  0  0
    4.2878   -2.2452   -1.7437 H   0  0  0  0  0  0  0  0  0  0  0  0
    5.0465   -3.2043   -0.4804 H   0  0  0  0  0  0  0  0  0  0  0  0
   -2.1404    0.7099   -2.2189 H   0  0  0  0  0  0  0  0  0  0  0  0
    2.7769   -1.9077    2.1096 H   0  0  0  0  0  0  0  0  0  0  0  0
    4.4354   -2.6304    1.7181 H   0  0  0  0  0  0  0  0  0  0  0  0
    5.2665    0.6972   -0.7337 H   0  0  0  0  0  0  0  0  0  0  0  0
   -5.5554   -0.0773    1.2957 H   0  0  0  0  0  0  0  0  0  0  0  0
   -4.3144   -0.2481   -2.8188 H   0  0  0  0  0  0  0  0  0  0  0  0
    2.0360    4.7229    1.2201 H   0  0  0  0  0  0  0  0  0  0  0  0
   -1.2876   -6.0667    1.6708 H   0  0  0  0  0  0  0  0  0  0  0  0
   -0.2116   -5.2755    2.8440 H   0  0  0  0  0  0  0  0  0  0  0  0
    0.4635   -6.2769    1.5536 H   0  0  0  0  0  0  0  0  0  0  0  0
   -1.2764   -2.9903    2.2520 H   0  0  0  0  0  0  0  0  0  0  0  0
   -1.2662   -2.4276    0.5818 H   0  0  0  0  0  0  0  0  0  0  0  0
   -2.3328   -3.7562    1.0456 H   0  0  0  0  0  0  0  0  0  0  0  0
   -4.0972    0.7213    2.7177 H   0  0  0  0  0  0  0  0  0  0  0  0
   -6.8257   -0.8363   -0.3378 H   0  0  0  0  0  0  0  0  0  0  0  0
  1 10  1  0  0  0  0
  1 11  1  0  0  0  0
  2 17  1  0  0  0  0
  2 48  1  0  0  0  0
  3 15  2  0  0  0  0
  4 19  1  0  0  0  0
  4 51  1  0  0  0  0
  5 23  1  0  0  0  0
  5 58  1  0  0  0  0
  6 29  1  0  0  0  0
  6 59  1  0  0  0  0
  7  8  1  0  0  0  0
  7 14  1  0  0  0  0
  7 16  1  0  0  0  0
  7 32  1  0  0  0  0
  8  9  1  0  0  0  0
  8 33  1  0  0  0  0
  8 34  1  0  0  0  0
  9 10  2  0  0  0  0
  9 17  1  0  0  0  0
 10 13  1  0  0  0  0
 11 12  1  0  0  0  0
 11 18  1  0  0  0  0
 11 35  1  0  0  0  0
 12 15  1  0  0  0  0
 12 36  1  0  0  0  0
 12 37  1  0  0  0  0
 13 15  1  0  0  0  0
 13 19  2  0  0  0  0
 14 21  1  0  0  0  0
 14 38  1  0  0  0  0
 14 39  1  0  0  0  0
 16 22  1  0  0  0  0
 16 25  2  0  0  0  0
 17 20  2  0  0  0  0
 18 23  2  0  0  0  0
 18 24  1  0  0  0  0
 19 20  1  0  0  0  0
 20 40  1  0  0  0  0
 21 26  2  0  0  0  0
 21 41  1  0  0  0  0
 22 42  1  0  0  0  0
 22 43  1  0  0  0  0
 22 44  1  0  0  0  0
 23 27  1  0  0  0  0
 24 28  2  0  0  0  0
 24 45  1  0  0  0  0
 25 46  1  0  0  0  0
 25 47  1  0  0  0  0
 26 30  1  0  0  0  0
 26 31  1  0  0  0  0
 27 29  2  0  0  0  0
 27 49  1  0  0  0  0
 28 29  1  0  0  0  0
 28 50  1  0  0  0  0
 30 52  1  0  0  0  0
 30 53  1  0  0  0  0
 30 54  1  0  0  0  0
 31 55  1  0  0  0  0
 31 56  1  0  0  0  0
 31 57  1  0  0  0  0
M  END
> <PUBCHEM_COMPOUND_CID>
72936

> <PUBCHEM_CONFORMER_RMSD>
0.8

> <PUBCHEM_CONFORMER_DIVERSEORDER>
3
110
126
95
225
41
134
171
130
88
206
58
144
17
169
125
172
21
151
193
146
78
186
22
81
142
18
166
98
229
77
105
177
96
74
100
38
175
176
86
16
154
120
182
211
71
76
119
185
215
127
5
160
167
194
197
161
226
131
46
79
203
112
55
157
65
179
221
227
107
104
230
70
53
201
183
116
122
23
114
188
108
153
94
33
36
204
82
184
152
109
27
40
192
87
158
216
37
57
83
35
200
4
195
60
30
93
147
139
148
207
231
168
102
121
28
8
59
34
143
145
54
191
180
72
209
164
199
29
62
10
213
31
218
15
202
224
6
101
69
217
49
124
1
84
208
80
178
205
156
159
9
106
136
212
210
103
89
64
47
111
14
189
67
32
198
140
135
13
196
2
11
220
52
128
39
214
56
165
63
73
223
228
42
173
25
90
170
149
45
174
50
99
138
85
123
26
219
66
181
155
163
44
187
117
162
91
150
113
68
97
222
24
92
129
190
48
12
115
118
7
137
141
133
75
51
19
132
20
61
43

> <PUBCHEM_MMFF94_PARTIAL_CHARGES>
42
1 -0.36
10 0.08
11 0.42
12 0.06
13 0.09
14 0.14
15 0.42
16 -0.28
17 0.08
18 -0.14
19 0.08
2 -0.53
20 -0.15
21 -0.29
22 0.14
23 0.08
24 -0.15
25 -0.3
26 -0.28
27 -0.15
28 -0.15
29 0.08
3 -0.57
30 0.14
31 0.14
4 -0.53
40 0.15
41 0.15
45 0.15
46 0.15
47 0.15
48 0.45
49 0.15
5 -0.53
50 0.15
51 0.45
58 0.45
59 0.45
6 -0.53
7 0.14
8 0.14
9 -0.14

> <PUBCHEM_EFFECTIVE_ROTOR_COUNT>
6.6

> <PUBCHEM_PHARMACOPHORE_FEATURES>
11
1 1 acceptor
1 2 donor
1 3 acceptor
1 4 donor
1 5 donor
1 6 donor
3 26 30 31 hydrophobe
5 7 8 14 16 21 hydrophobe
6 1 10 11 12 13 15 rings
6 18 23 24 27 28 29 rings
6 9 10 13 17 19 20 rings

> <PUBCHEM_HEAVY_ATOM_COUNT>
31

> <PUBCHEM_ATOM_DEF_STEREO_COUNT>
2

> <PUBCHEM_ATOM_UDEF_STEREO_COUNT>
0

> <PUBCHEM_BOND_DEF_STEREO_COUNT>
0

> <PUBCHEM_BOND_UDEF_STEREO_COUNT>
0

> <PUBCHEM_ISOTOPIC_ATOM_COUNT>
0

> <PUBCHEM_COMPONENT_COUNT>
1

> <PUBCHEM_CACTVS_TAUTO_COUNT>
189

> <PUBCHEM_CONFORMER_ID>
00011CE800000003

> <PUBCHEM_MMFF94_ENERGY>
79.7806

> <PUBCHEM_FEATURE_SELFOVERLAP>
55.851

> <PUBCHEM_SHAPE_FINGERPRINT>
10074138 170 17262678550597657312
10721379 63 17474327736005815511
1100329 8 18339636854356621254
114674 6 18410857667936543925
11720765 8 17257035491614132133
12156800 1 17265214006835352187
12553582 1 18198069088039410789
13140716 1 18195809794099079128
152267 14 17257366345803612931
17138139 8 17412437489029916639
19930381 70 18337115557977098859
20028762 73 18131631192710802126
20511986 3 17561073723022589437
20764821 26 18336278889373249379
21133410 171 17035241972216700975
21421861 104 18124894372960827024
21796203 349 18050322230595784474
3882209 13 17324610334028084427
392239 28 18123748652302107538
4409770 3 17114645870819985173
463206 1 18410576154732895687
5309563 4 18268145358130045983
86090 222 17897475911295291323
9777508 108 17905323288189092495

> <PUBCHEM_SHAPE_MULTIPOLES>
602.75
8.75
7.1
1.51
9.28
3.54
0.13
1.47
-2.41
-5.11
3.88
0.74
0.74
0

> <PUBCHEM_SHAPE_SELFOVERLAP>
1291.415

> <PUBCHEM_SHAPE_VOLUME>
333.1

> <PUBCHEM_COORDINATE_TYPE>
2
5
10

$$$$
