77232202
  -OEChem-07072510223D

 53 54  0     1  0  0  0  0  0999 V2000
    0.7688    1.3380   -1.2964 S   0  0  0  0  0  0  0  0  0  0  0  0
   -4.8271   -0.6886    1.7657 O   0  0  0  0  0  0  0  0  0  0  0  0
   -4.4432   -1.2102   -2.3805 O   0  0  0  0  0  0  0  0  0  0  0  0
    5.6717    0.2910   -0.3699 O   0  0  0  0  0  0  0  0  0  0  0  0
   -2.8734    3.2836    0.7411 O   0  0  0  0  0  0  0  0  0  0  0  0
   -0.8607    3.7162   -0.2549 O   0  0  0  0  0  0  0  0  0  0  0  0
   -2.6767    0.6974    0.4270 N   0  0  0  0  0  0  0  0  0  0  0  0
    3.9763    1.5440    1.0555 N   0  0  0  0  0  0  0  0  0  0  0  0
    4.8752   -1.8619   -0.0055 N   0  0  0  0  0  0  0  0  0  0  0  0
   -2.3495   -0.7162    0.3374 C   0  0  2  0  0  0  0  0  0  0  0  0
   -1.0798   -0.7162   -0.5853 C   0  0  2  0  0  0  0  0  0  0  0  0
   -3.5554   -1.5121   -0.1301 C   0  0  1  0  0  0  0  0  0  0  0  0
    1.8343    1.2465    0.1661 C   0  0  1  0  0  0  0  0  0  0  0  0
   -0.7061    0.7627   -0.6338 C   0  0  0  0  0  0  0  0  0  0  0  0
    2.3844   -0.1529    0.4235 C   0  0  0  0  0  0  0  0  0  0  0  0
    3.7724    0.0886    1.0141 C   0  0  1  0  0  0  0  0  0  0  0  0
    3.0823    2.0987    0.0279 C   0  0  0  0  0  0  0  0  0  0  0  0
   -1.6740    1.4912   -0.0602 C   0  0  0  0  0  0  0  0  0  0  0  0
   -1.3007   -1.2958   -1.9826 C   0  0  0  0  0  0  0  0  0  0  0  0
   -4.5617   -1.8550    0.9884 C   0  0  1  0  0  0  0  0  0  0  0  0
   -4.3009   -0.7805   -1.2403 C   0  0  0  0  0  0  0  0  0  0  0  0
    4.8580   -0.4755    0.1522 C   0  0  0  0  0  0  0  0  0  0  0  0
   -4.0542   -2.9560    1.9127 C   0  0  0  0  0  0  0  0  0  0  0  0
   -1.7270    2.9377    0.1136 C   0  0  0  0  0  0  0  0  0  0  0  0
    3.8910   -2.7330    0.6319 C   0  0  0  0  0  0  0  0  0  0  0  0
    5.8762   -2.5417   -0.8176 C   0  0  0  0  0  0  0  0  0  0  0  0
   -2.0254   -1.0565    1.3286 H   0  0  0  0  0  0  0  0  0  0  0  0
   -0.2937   -1.2966   -0.0879 H   0  0  0  0  0  0  0  0  0  0  0  0
    1.2734    1.5857    1.0474 H   0  0  0  0  0  0  0  0  0  0  0  0
   -3.2326   -2.4728   -0.5472 H   0  0  0  0  0  0  0  0  0  0  0  0
    2.4231   -0.7350   -0.5043 H   0  0  0  0  0  0  0  0  0  0  0  0
    1.7384   -0.6797    1.1348 H   0  0  0  0  0  0  0  0  0  0  0  0
    3.8706   -0.2984    2.0329 H   0  0  0  0  0  0  0  0  0  0  0  0
   -3.4030    1.0695    1.0253 H   0  0  0  0  0  0  0  0  0  0  0  0
    3.5470    2.0043   -0.9613 H   0  0  0  0  0  0  0  0  0  0  0  0
    2.8836    3.1579    0.2191 H   0  0  0  0  0  0  0  0  0  0  0  0
   -1.9763   -0.6843   -2.5865 H   0  0  0  0  0  0  0  0  0  0  0  0
   -1.6607   -2.3273   -1.9537 H   0  0  0  0  0  0  0  0  0  0  0  0
   -0.3483   -1.3252   -2.5262 H   0  0  0  0  0  0  0  0  0  0  0  0
   -5.5122   -2.1764    0.5454 H   0  0  0  0  0  0  0  0  0  0  0  0
    4.9447    1.8120    0.8933 H   0  0  0  0  0  0  0  0  0  0  0  0
   -4.7601    0.1842   -0.9621 H   0  0  0  0  0  0  0  0  0  0  0  0
   -3.8140   -3.8661    1.3549 H   0  0  0  0  0  0  0  0  0  0  0  0
   -4.8171   -3.2027    2.6596 H   0  0  0  0  0  0  0  0  0  0  0  0
   -3.1690   -2.6393    2.4730 H   0  0  0  0  0  0  0  0  0  0  0  0
   -5.4799   -0.9302    2.4447 H   0  0  0  0  0  0  0  0  0  0  0  0
    3.1123   -2.9713   -0.0982 H   0  0  0  0  0  0  0  0  0  0  0  0
    3.4443   -2.3078    1.5296 H   0  0  0  0  0  0  0  0  0  0  0  0
    4.3843   -3.6641    0.9308 H   0  0  0  0  0  0  0  0  0  0  0  0
    6.4640   -3.2037   -0.1753 H   0  0  0  0  0  0  0  0  0  0  0  0
    6.5462   -1.8234   -1.2968 H   0  0  0  0  0  0  0  0  0  0  0  0
    5.3676   -3.1277   -1.5884 H   0  0  0  0  0  0  0  0  0  0  0  0
   -2.9417    4.2530    0.8748 H   0  0  0  0  0  0  0  0  0  0  0  0
  1 13  1  0  0  0  0
  1 14  1  0  0  0  0
  2 20  1  0  0  0  0
  2 46  1  0  0  0  0
  3 21  2  0  0  0  0
  4 22  2  0  0  0  0
  5 24  1  0  0  0  0
  5 53  1  0  0  0  0
  6 24  2  0  0  0  0
  7 10  1  0  0  0  0
  7 18  1  0  0  0  0
  7 34  1  0  0  0  0
  8 16  1  0  0  0  0
  8 17  1  0  0  0  0
  8 41  1  0  0  0  0
  9 22  1  0  0  0  0
  9 25  1  0  0  0  0
  9 26  1  0  0  0  0
 10 11  1  0  0  0  0
 10 12  1  0  0  0  0
 10 27  1  0  0  0  0
 11 14  1  0  0  0  0
 11 19  1  0  0  0  0
 11 28  1  0  0  0  0
 12 20  1  0  0  0  0
 12 21  1  0  0  0  0
 12 30  1  0  0  0  0
 13 15  1  0  0  0  0
 13 17  1  0  0  0  0
 13 29  1  0  0  0  0
 14 18  2  0  0  0  0
 15 16  1  0  0  0  0
 15 31  1  0  0  0  0
 15 32  1  0  0  0  0
 16 22  1  0  0  0  0
 16 33  1  0  0  0  0
 17 35  1  0  0  0  0
 17 36  1  0  0  0  0
 18 24  1  0  0  0  0
 19 37  1  0  0  0  0
 19 38  1  0  0  0  0
 19 39  1  0  0  0  0
 20 23  1  0  0  0  0
 20 40  1  0  0  0  0
 21 42  1  0  0  0  0
 23 43  1  0  0  0  0
 23 44  1  0  0  0  0
 23 45  1  0  0  0  0
 25 47  1  0  0  0  0
 25 48  1  0  0  0  0
 25 49  1  0  0  0  0
 26 50  1  0  0  0  0
 26 51  1  0  0  0  0
 26 52  1  0  0  0  0
M  END
> <PUBCHEM_COMPOUND_CID>
77232202

> <PUBCHEM_CONFORMER_RMSD>
1

> <PUBCHEM_CONFORMER_DIVERSEORDER>
1
21
30
35
14
39
28
4
42
20
9
32
31
25
40
16
5
24
38
19
34
15
36
23
43
13
6
22
37
18
29
33
17
26
41
2
8
10
7
44
27
12
3
11

> <PUBCHEM_MMFF94_PARTIAL_CHARGES>
28
1 -0.33
10 0.37
11 0.14
12 0.06
13 0.23
14 -0.04
16 0.33
17 0.27
18 0.11
2 -0.68
20 0.28
21 0.45
22 0.57
24 0.71
25 0.3
26 0.3
3 -0.57
34 0.4
4 -0.57
41 0.36
42 0.06
46 0.4
5 -0.65
53 0.5
6 -0.57
7 -0.87
8 -0.9
9 -0.66

> <PUBCHEM_EFFECTIVE_ROTOR_COUNT>
9.6

> <PUBCHEM_PHARMACOPHORE_FEATURES>
13
1 2 acceptor
1 2 donor
1 3 acceptor
1 4 acceptor
1 5 acceptor
1 6 acceptor
1 7 cation
1 7 donor
1 8 cation
1 8 donor
3 5 6 24 anion
5 7 10 11 14 18 rings
5 8 13 15 16 17 rings

> <PUBCHEM_HEAVY_ATOM_COUNT>
26

> <PUBCHEM_ATOM_DEF_STEREO_COUNT>
6

> <PUBCHEM_ATOM_UDEF_STEREO_COUNT>
0

> <PUBCHEM_BOND_DEF_STEREO_COUNT>
0

> <PUBCHEM_BOND_UDEF_STEREO_COUNT>
0

> <PUBCHEM_ISOTOPIC_ATOM_COUNT>
0

> <PUBCHEM_COMPONENT_COUNT>
1

> <PUBCHEM_CACTVS_TAUTO_COUNT>
2

> <PUBCHEM_CONFORMER_ID>
049A784A00000001

> <PUBCHEM_MMFF94_ENERGY>
80.7712

> <PUBCHEM_FEATURE_SELFOVERLAP>
66.028

> <PUBCHEM_SHAPE_FINGERPRINT>
11796584 16 17532075258853111403
12422481 6 17917164818267678855
12553582 1 18268147754394730188
12633257 1 16845298292657525115
12760667 363 18412542106844549071
13383661 66 17024900244274332611
13533116 47 18271237326323688238
13544653 18 18336823203542259117
13690498 29 18340780230548773422
14341114 176 18410581673475337498
14420673 8 18053388695727783702
14840074 17 18202564016165150015
15042514 8 18337398145350826209
15537594 2 18272654601576617342
17492 89 18409730668855716170
193927 3 18260831522529763322
21521721 280 8574438638682072239
23175994 123 18262230144776330669
23559900 14 18187921823980745560
312423 11 18335148600299779036
314194 84 18196650911286805461
4058900 60 17401488148055466097
44062 13 18197497325266713438
5104073 3 18341325592627000464
5486654 36 18337672997439857114
56633871 153 18272093850420007223
59755656 520 18120649128949989221
613672 6 18263063561014316544
7970288 3 18265618860640378851

> <PUBCHEM_SHAPE_MULTIPOLES>
494.63
12.47
3.72
1.55
9.38
1.5
-0.41
-9.53
1.33
-0.61
0.82
-1.92
-0.82
0.94

> <PUBCHEM_SHAPE_SELFOVERLAP>
1005.987

> <PUBCHEM_SHAPE_VOLUME>
290.3

> <PUBCHEM_COORDINATE_TYPE>
2
5
10

$$$$
