636543
  -OEChem-06132511483D

 68 70  0     1  0  0  0  0  0999 V2000
   -2.8579   -0.7758   -0.2344 O   0  0  0  0  0  0  0  0  0  0  0  0
   -3.8401    2.5917   -1.3001 O   0  0  0  0  0  0  0  0  0  0  0  0
   -3.4572   -1.3492   -2.8935 O   0  0  0  0  0  0  0  0  0  0  0  0
   -8.6199    1.4500   -0.5069 O   0  0  0  0  0  0  0  0  0  0  0  0
   -2.1858   -3.3943    0.4188 O   0  0  0  0  0  0  0  0  0  0  0  0
   -8.7086    0.6071    2.1405 O   0  0  0  0  0  0  0  0  0  0  0  0
    5.2334   -3.1252    0.4274 O   0  0  0  0  0  0  0  0  0  0  0  0
    7.3182    4.7483    0.3722 O   0  0  0  0  0  0  0  0  0  0  0  0
    5.8815   -1.2989   -0.8563 N   0  0  0  0  0  0  0  0  0  0  0  0
   -3.1509    0.2765   -1.1560 C   0  0  2  0  0  0  0  0  0  0  0  0
   -3.7205    1.4896   -0.3973 C   0  0  2  0  0  0  0  0  0  0  0  0
   -5.0549    1.2550    0.2778 C   0  0  0  0  0  0  0  0  0  0  0  0
   -4.0883   -0.2533   -2.2380 C   0  0  0  0  0  0  0  0  0  0  0  0
   -6.2399    1.4616   -0.4285 C   0  0  0  0  0  0  0  0  0  0  0  0
   -5.0996    0.8321    1.6063 C   0  0  0  0  0  0  0  0  0  0  0  0
   -1.5482   -1.1552   -0.1377 C   0  0  0  0  0  0  0  0  0  0  0  0
   -7.4695    1.2450    0.1935 C   0  0  0  0  0  0  0  0  0  0  0  0
   -6.3292    0.6159    2.2284 C   0  0  0  0  0  0  0  0  0  0  0  0
   -1.2129   -2.4685    0.1916 C   0  0  0  0  0  0  0  0  0  0  0  0
   -7.5142    0.8222    1.5220 C   0  0  0  0  0  0  0  0  0  0  0  0
   -0.5431   -0.2161   -0.3698 C   0  0  0  0  0  0  0  0  0  0  0  0
    1.1323   -1.9036    0.0566 C   0  0  0  0  0  0  0  0  0  0  0  0
    0.1274   -2.8428    0.2885 C   0  0  0  0  0  0  0  0  0  0  0  0
    0.7971   -0.5903   -0.2725 C   0  0  0  0  0  0  0  0  0  0  0  0
    8.0057   -0.8695    0.3350 C   0  0  0  0  0  0  0  0  0  0  0  0
    7.3058   -1.5472   -0.8406 C   0  0  0  0  0  0  0  0  0  0  0  0
    7.8223    0.6282    0.3451 C   0  0  0  0  0  0  0  0  0  0  0  0
    2.5297   -2.2937    0.1582 C   0  0  0  0  0  0  0  0  0  0  0  0
    3.5681   -1.6270   -0.3947 C   0  0  0  0  0  0  0  0  0  0  0  0
    6.7390    1.1938    1.0175 C   0  0  0  0  0  0  0  0  0  0  0  0
    8.7363    1.4472   -0.3181 C   0  0  0  0  0  0  0  0  0  0  0  0
    4.9651   -2.1161   -0.2162 C   0  0  0  0  0  0  0  0  0  0  0  0
   -8.4869    1.8819   -1.8597 C   0  0  0  0  0  0  0  0  0  0  0  0
    6.5695    2.5784    1.0268 C   0  0  0  0  0  0  0  0  0  0  0  0
    8.5666    2.8318   -0.3090 C   0  0  0  0  0  0  0  0  0  0  0  0
   -2.6537   -3.5272    1.7596 C   0  0  0  0  0  0  0  0  0  0  0  0
    7.4833    3.3974    0.3635 C   0  0  0  0  0  0  0  0  0  0  0  0
   -2.2817    0.6031   -1.7373 H   0  0  0  0  0  0  0  0  0  0  0  0
   -3.0043    1.8011    0.3738 H   0  0  0  0  0  0  0  0  0  0  0  0
   -5.0136   -0.6476   -1.8085 H   0  0  0  0  0  0  0  0  0  0  0  0
   -4.3254    0.5122   -2.9830 H   0  0  0  0  0  0  0  0  0  0  0  0
   -6.1568    1.7831   -1.4603 H   0  0  0  0  0  0  0  0  0  0  0  0
   -4.1836    0.6653    2.1668 H   0  0  0  0  0  0  0  0  0  0  0  0
   -2.9542    2.7783   -1.6550 H   0  0  0  0  0  0  0  0  0  0  0  0
   -6.3493    0.2858    3.2635 H   0  0  0  0  0  0  0  0  0  0  0  0
   -0.7376    0.8366   -0.5488 H   0  0  0  0  0  0  0  0  0  0  0  0
    0.3769   -3.8706    0.5436 H   0  0  0  0  0  0  0  0  0  0  0  0
   -4.0740   -1.6673   -3.5747 H   0  0  0  0  0  0  0  0  0  0  0  0
    1.5452    0.1825   -0.4248 H   0  0  0  0  0  0  0  0  0  0  0  0
    7.6327   -1.2828    1.2812 H   0  0  0  0  0  0  0  0  0  0  0  0
    9.0765   -1.1068    0.3080 H   0  0  0  0  0  0  0  0  0  0  0  0
    7.7038   -1.1777   -1.7922 H   0  0  0  0  0  0  0  0  0  0  0  0
    7.4793   -2.6281   -0.7993 H   0  0  0  0  0  0  0  0  0  0  0  0
    2.7204   -3.2006    0.7281 H   0  0  0  0  0  0  0  0  0  0  0  0
    5.5594   -0.4802   -1.3643 H   0  0  0  0  0  0  0  0  0  0  0  0
    6.0208    0.5681    1.5407 H   0  0  0  0  0  0  0  0  0  0  0  0
    9.5831    1.0181   -0.8470 H   0  0  0  0  0  0  0  0  0  0  0  0
    3.4312   -0.7323   -0.9917 H   0  0  0  0  0  0  0  0  0  0  0  0
   -8.5444    0.3190    3.0550 H   0  0  0  0  0  0  0  0  0  0  0  0
   -9.4991    1.9954   -2.2618 H   0  0  0  0  0  0  0  0  0  0  0  0
   -7.9839    1.1293   -2.4766 H   0  0  0  0  0  0  0  0  0  0  0  0
   -8.0083    2.8651   -1.9251 H   0  0  0  0  0  0  0  0  0  0  0  0
    5.7215    3.0065    1.5547 H   0  0  0  0  0  0  0  0  0  0  0  0
    9.2814    3.4645   -0.8279 H   0  0  0  0  0  0  0  0  0  0  0  0
   -1.8377   -3.8324    2.4222 H   0  0  0  0  0  0  0  0  0  0  0  0
   -3.0910   -2.5867    2.1098 H   0  0  0  0  0  0  0  0  0  0  0  0
   -3.4269   -4.3001    1.7776 H   0  0  0  0  0  0  0  0  0  0  0  0
    6.5192    4.9648    0.8830 H   0  0  0  0  0  0  0  0  0  0  0  0
  1 10  1  0  0  0  0
  1 16  1  0  0  0  0
  2 11  1  0  0  0  0
  2 44  1  0  0  0  0
  3 13  1  0  0  0  0
  3 48  1  0  0  0  0
  4 17  1  0  0  0  0
  4 33  1  0  0  0  0
  5 19  1  0  0  0  0
  5 36  1  0  0  0  0
  6 20  1  0  0  0  0
  6 59  1  0  0  0  0
  7 32  2  0  0  0  0
  8 37  1  0  0  0  0
  8 68  1  0  0  0  0
  9 26  1  0  0  0  0
  9 32  1  0  0  0  0
  9 55  1  0  0  0  0
 10 11  1  0  0  0  0
 10 13  1  0  0  0  0
 10 38  1  0  0  0  0
 11 12  1  0  0  0  0
 11 39  1  0  0  0  0
 12 14  2  0  0  0  0
 12 15  1  0  0  0  0
 13 40  1  0  0  0  0
 13 41  1  0  0  0  0
 14 17  1  0  0  0  0
 14 42  1  0  0  0  0
 15 18  2  0  0  0  0
 15 43  1  0  0  0  0
 16 19  2  0  0  0  0
 16 21  1  0  0  0  0
 17 20  2  0  0  0  0
 18 20  1  0  0  0  0
 18 45  1  0  0  0  0
 19 23  1  0  0  0  0
 21 24  2  0  0  0  0
 21 46  1  0  0  0  0
 22 23  2  0  0  0  0
 22 24  1  0  0  0  0
 22 28  1  0  0  0  0
 23 47  1  0  0  0  0
 24 49  1  0  0  0  0
 25 26  1  0  0  0  0
 25 27  1  0  0  0  0
 25 50  1  0  0  0  0
 25 51  1  0  0  0  0
 26 52  1  0  0  0  0
 26 53  1  0  0  0  0
 27 30  2  0  0  0  0
 27 31  1  0  0  0  0
 28 29  2  0  0  0  0
 28 54  1  0  0  0  0
 29 32  1  0  0  0  0
 29 58  1  0  0  0  0
 30 34  1  0  0  0  0
 30 56  1  0  0  0  0
 31 35  2  0  0  0  0
 31 57  1  0  0  0  0
 33 60  1  0  0  0  0
 33 61  1  0  0  0  0
 33 62  1  0  0  0  0
 34 37  2  0  0  0  0
 34 63  1  0  0  0  0
 35 37  1  0  0  0  0
 35 64  1  0  0  0  0
 36 65  1  0  0  0  0
 36 66  1  0  0  0  0
 36 67  1  0  0  0  0
M  END
> <PUBCHEM_COMPOUND_CID>
636543

> <PUBCHEM_CONFORMER_RMSD>
1.2

> <PUBCHEM_CONFORMER_DIVERSEORDER>
65
45
7
18
84
73
162
167
114
109
12
78
124
36
137
129
188
49
138
119
92
157
101
127
27
67
141
26
58
4
185
24
72
39
28
70
125
156
143
55
32
42
131
46
115
176
153
97
82
133
107
8
182
116
54
79
105
165
17
63
140
98
121
104
159
76
151
193
19
89
100
77
60
145
130
48
29
128
93
134
135
142
168
150
108
177
52
20
126
37
59
94
154
86
74
23
146
174
191
111
40
81
62
103
13
189
99
166
136
44
170
169
34
160
64
10
117
120
144
61
11
71
57
123
171
91
122
181
132
41
95
88
155
186
2
75
161
53
5
190
35
43
14
90
25
66
139
147
180
164
80
110
50
9
152
102
21
1
178
6
47
179
87
172
51
173
148
158
22
3
69
118
163
85
68
56
33
175
187
15
112
149
31
183
38
96
16
83
30
192
113
184
106

> <PUBCHEM_MMFF94_PARTIAL_CHARGES>
54
1 -0.36
10 0.28
11 0.42
12 -0.14
13 0.28
14 -0.15
15 -0.15
16 0.08
17 0.08
18 -0.15
19 0.08
2 -0.68
20 0.08
21 -0.15
22 0.03
23 -0.15
24 -0.15
25 0.14
26 0.3
27 -0.14
28 -0.18
29 -0.14
3 -0.68
30 -0.15
31 -0.15
32 0.62
33 0.28
34 -0.15
35 -0.15
36 0.28
37 0.08
4 -0.36
42 0.15
43 0.15
44 0.4
45 0.15
46 0.15
47 0.15
48 0.4
49 0.15
5 -0.36
54 0.15
55 0.37
56 0.15
57 0.15
58 0.15
59 0.45
6 -0.53
63 0.15
64 0.15
68 0.45
7 -0.57
8 -0.53
9 -0.73

> <PUBCHEM_EFFECTIVE_ROTOR_COUNT>
13

> <PUBCHEM_PHARMACOPHORE_FEATURES>
14
1 1 acceptor
1 2 acceptor
1 2 donor
1 3 acceptor
1 3 donor
1 4 acceptor
1 5 acceptor
1 6 donor
1 7 acceptor
1 8 donor
1 9 donor
6 12 14 15 17 18 20 rings
6 16 19 21 22 23 24 rings
6 27 30 31 34 35 37 rings

> <PUBCHEM_HEAVY_ATOM_COUNT>
37

> <PUBCHEM_ATOM_DEF_STEREO_COUNT>
2

> <PUBCHEM_ATOM_UDEF_STEREO_COUNT>
0

> <PUBCHEM_BOND_DEF_STEREO_COUNT>
1

> <PUBCHEM_BOND_UDEF_STEREO_COUNT>
0

> <PUBCHEM_ISOTOPIC_ATOM_COUNT>
0

> <PUBCHEM_COMPONENT_COUNT>
1

> <PUBCHEM_CACTVS_TAUTO_COUNT>
12

> <PUBCHEM_CONFORMER_ID>
0009B67F00000041

> <PUBCHEM_MMFF94_ENERGY>
125.6969

> <PUBCHEM_FEATURE_SELFOVERLAP>
71.06

> <PUBCHEM_SHAPE_FINGERPRINT>
10 15 18041280980576654131
10930396 42 16950282927733321425
11007060 377 18260263053675683619
11409948 8 18260841419026009627
12539765 74 17846224302005035319
12925494 130 18339921627910653936
13383668 251 17895477033077317421
13383668 362 17896334677515774905
13782708 43 9295294954537321406
14849402 71 18344148098488358529
16126227 98 18412267233290789683
16728433 110 18410293585209495901
16758388 162 18189046505251805938
19302320 297 18334290986400735400
2026 5 8790619100118915896
21585482 111 18338521958668434360
21792965 270 18261966248584447608
25269216 80 17203319066145728839
3525247 18 17340109454256936256
3711267 37 18059301967603255489
4258327 124 17846500339721713067
4403749 210 18186803574445152075
44555599 121 18131352978072801776
474113 269 11314309477271407099
504579 68 14045741517606137258

> <PUBCHEM_SHAPE_MULTIPOLES>
709.51
32.63
4.41
1.72
19.45
0.52
-0.22
30.47
3.74
7.82
0.75
-4.51
0.05
1.96

> <PUBCHEM_SHAPE_SELFOVERLAP>
1504.828

> <PUBCHEM_SHAPE_VOLUME>
395.9

> <PUBCHEM_COORDINATE_TYPE>
2
5
10

$$$$
