15558323
  -OEChem-06132510543D

 36 36  0     0  0  0  0  0  0999 V2000
   -0.1688   -1.5494   -0.5076 O   0  0  0  0  0  0  0  0  0  0  0  0
   -0.6138    3.2160   -0.4677 O   0  0  0  0  0  0  0  0  0  0  0  0
    3.5372    1.2265    0.7241 O   0  0  0  0  0  0  0  0  0  0  0  0
    3.1859   -1.8659   -0.6102 O   0  0  0  0  0  0  0  0  0  0  0  0
   -0.4000    0.8278   -0.4907 C   0  0  0  0  0  0  0  0  0  0  0  0
   -1.8356    0.6936   -0.9334 C   0  0  0  0  0  0  0  0  0  0  0  0
    0.3685   -0.3124   -0.2984 C   0  0  0  0  0  0  0  0  0  0  0  0
    1.6958   -0.1859    0.1115 C   0  0  0  0  0  0  0  0  0  0  0  0
    0.1340    2.0922   -0.2812 C   0  0  0  0  0  0  0  0  0  0  0  0
    2.2421    1.0798    0.3250 C   0  0  0  0  0  0  0  0  0  0  0  0
   -2.7849    0.5937    0.2272 C   0  0  0  0  0  0  0  0  0  0  0  0
    1.4612    2.2188    0.1285 C   0  0  0  0  0  0  0  0  0  0  0  0
   -3.6170   -0.4209    0.5307 C   0  0  0  0  0  0  0  0  0  0  0  0
    2.5139   -1.3760    0.3163 C   0  0  0  0  0  0  0  0  0  0  0  0
   -4.5450   -0.4584    1.7116 C   0  0  0  0  0  0  0  0  0  0  0  0
   -3.6803   -1.6426   -0.3472 C   0  0  0  0  0  0  0  0  0  0  0  0
    2.5591   -2.0466    1.6826 C   0  0  0  0  0  0  0  0  0  0  0  0
   -0.0522   -2.0902   -1.8209 C   0  0  0  0  0  0  0  0  0  0  0  0
   -1.9228   -0.1465   -1.6246 H   0  0  0  0  0  0  0  0  0  0  0  0
   -2.1332    1.5430   -1.5608 H   0  0  0  0  0  0  0  0  0  0  0  0
   -2.7959    1.4575    0.8912 H   0  0  0  0  0  0  0  0  0  0  0  0
    1.8799    3.2088    0.2926 H   0  0  0  0  0  0  0  0  0  0  0  0
   -4.4439    0.4388    2.3312 H   0  0  0  0  0  0  0  0  0  0  0  0
   -5.5864   -0.5198    1.3798 H   0  0  0  0  0  0  0  0  0  0  0  0
   -4.3246   -1.3260    2.3417 H   0  0  0  0  0  0  0  0  0  0  0  0
   -3.4676   -1.4440   -1.3998 H   0  0  0  0  0  0  0  0  0  0  0  0
   -2.9917   -2.4092    0.0216 H   0  0  0  0  0  0  0  0  0  0  0  0
   -4.6908   -2.0675   -0.3304 H   0  0  0  0  0  0  0  0  0  0  0  0
    2.1946   -3.0728    1.5909 H   0  0  0  0  0  0  0  0  0  0  0  0
    1.9242   -1.5102    2.3933 H   0  0  0  0  0  0  0  0  0  0  0  0
    3.5872   -2.0376    2.0534 H   0  0  0  0  0  0  0  0  0  0  0  0
   -1.5584    3.0202   -0.3711 H   0  0  0  0  0  0  0  0  0  0  0  0
   -0.0345   -1.3117   -2.5911 H   0  0  0  0  0  0  0  0  0  0  0  0
   -0.9119   -2.7415   -2.0012 H   0  0  0  0  0  0  0  0  0  0  0  0
    0.8581   -2.6922   -1.8893 H   0  0  0  0  0  0  0  0  0  0  0  0
    3.7354    2.1738    0.8201 H   0  0  0  0  0  0  0  0  0  0  0  0
  1  7  1  0  0  0  0
  1 18  1  0  0  0  0
  2  9  1  0  0  0  0
  2 32  1  0  0  0  0
  3 10  1  0  0  0  0
  3 36  1  0  0  0  0
  4 14  2  0  0  0  0
  5  6  1  0  0  0  0
  5  7  2  0  0  0  0
  5  9  1  0  0  0  0
  6 11  1  0  0  0  0
  6 19  1  0  0  0  0
  6 20  1  0  0  0  0
  7  8  1  0  0  0  0
  8 10  2  0  0  0  0
  8 14  1  0  0  0  0
  9 12  2  0  0  0  0
 10 12  1  0  0  0  0
 11 13  2  0  0  0  0
 11 21  1  0  0  0  0
 12 22  1  0  0  0  0
 13 15  1  0  0  0  0
 13 16  1  0  0  0  0
 14 17  1  0  0  0  0
 15 23  1  0  0  0  0
 15 24  1  0  0  0  0
 15 25  1  0  0  0  0
 16 26  1  0  0  0  0
 16 27  1  0  0  0  0
 16 28  1  0  0  0  0
 17 29  1  0  0  0  0
 17 30  1  0  0  0  0
 17 31  1  0  0  0  0
 18 33  1  0  0  0  0
 18 34  1  0  0  0  0
 18 35  1  0  0  0  0
M  END
> <PUBCHEM_COMPOUND_CID>
15558323

> <PUBCHEM_CONFORMER_RMSD>
0.6

> <PUBCHEM_CONFORMER_DIVERSEORDER>
1
32
13
53
54
44
40
42
8
25
48
11
14
50
37
18
33
24
47
49
5
43
26
52
39
30
35
38
41
19
31
46
16
23
7
51
29
45
2
34
27
22
9
28
3
17
36
20
4
6
21
15
10
12

> <PUBCHEM_MMFF94_PARTIAL_CHARGES>
22
1 -0.36
10 0.08
11 -0.29
12 -0.15
13 -0.28
14 0.42
15 0.14
16 0.14
17 0.06
18 0.28
2 -0.53
21 0.15
22 0.15
3 -0.53
32 0.45
36 0.45
4 -0.57
5 -0.14
6 0.28
7 0.08
8 0.09
9 0.08

> <PUBCHEM_EFFECTIVE_ROTOR_COUNT>
4

> <PUBCHEM_PHARMACOPHORE_FEATURES>
6
1 1 acceptor
1 2 donor
1 3 donor
1 4 acceptor
3 13 15 16 hydrophobe
6 5 7 8 9 10 12 rings

> <PUBCHEM_HEAVY_ATOM_COUNT>
18

> <PUBCHEM_ATOM_DEF_STEREO_COUNT>
0

> <PUBCHEM_ATOM_UDEF_STEREO_COUNT>
0

> <PUBCHEM_BOND_DEF_STEREO_COUNT>
0

> <PUBCHEM_BOND_UDEF_STEREO_COUNT>
0

> <PUBCHEM_ISOTOPIC_ATOM_COUNT>
0

> <PUBCHEM_COMPONENT_COUNT>
1

> <PUBCHEM_CACTVS_TAUTO_COUNT>
21

> <PUBCHEM_CONFORMER_ID>
00ED66B300000001

> <PUBCHEM_MMFF94_ENERGY>
60.2717

> <PUBCHEM_FEATURE_SELFOVERLAP>
30.446

> <PUBCHEM_SHAPE_FINGERPRINT>
10382601 240 18339357578060495928
10493431 412 17980479289031145176
10906281 52 17980473460533580365
10980938 120 18339640152295509444
11086676 242 18411694366236380186
11471102 22 18336834177315621289
11578080 2 17024008390389225468
12202030 40 16516507928974056994
12251169 10 18339084903656195947
12553582 1 18336264544282629275
13140716 1 18052246311525501592
14178342 30 17839163457411296840
14252887 29 18409733979790308800
14787075 74 18113906008808979850
14790565 3 17903924701083765108
15375462 189 18333453140220803659
16945 1 18263637523264040644
20645477 70 18410001148753143975
20739085 24 18268731470631182497
22182313 1 18268415859681703852
23184049 59 18342461451993308931
2334 1 18339630213582983244
23559900 14 17677043530339250234
2748010 2 18124575519326824988
31174 14 18409729581844121617
568465 68 17700674199709464330
81228 2 17834686989388039421
8809292 202 18117836590921650053

> <PUBCHEM_SHAPE_MULTIPOLES>
346.95
6.41
2.87
1.31
5.15
0.96
-0.12
-2.45
-3.03
-1.42
0.39
0.37
-0.78
-0.06

> <PUBCHEM_SHAPE_SELFOVERLAP>
717.325

> <PUBCHEM_SHAPE_VOLUME>
200

> <PUBCHEM_COORDINATE_TYPE>
2
5
10

$$$$
