73303
  -OEChem-07102511163D

 51 53  0     1  0  0  0  0  0999 V2000
   -0.3641    0.4060    1.3163 S   0  0  0  0  0  0  0  0  0  0  0  0
   -6.8814    0.2838    0.2905 S   0  0  0  0  0  0  0  0  0  0  0  0
    4.9614    1.9382    0.2883 O   0  0  0  0  0  0  0  0  0  0  0  0
    5.7501   -1.0165   -1.6830 O   0  0  0  0  0  0  0  0  0  0  0  0
    2.2584    2.9412   -1.2889 O   0  0  0  0  0  0  0  0  0  0  0  0
    0.9911    3.1980    0.5974 O   0  0  0  0  0  0  0  0  0  0  0  0
   -7.9319   -0.2274    1.1506 O   0  0  0  0  0  0  0  0  0  0  0  0
   -6.2219    1.5381    0.5996 O   0  0  0  0  0  0  0  0  0  0  0  0
    3.1522    0.5743   -0.3670 N   0  0  0  0  0  0  0  0  0  0  0  0
   -2.3765   -1.3095   -1.6699 N   0  0  0  0  0  0  0  0  0  0  0  0
   -5.6848   -0.9433    0.0945 N   0  0  0  0  0  0  0  0  0  0  0  0
   -7.4959    0.3689   -1.3098 N   0  0  0  0  0  0  0  0  0  0  0  0
    3.2190   -0.8739   -0.0835 C   0  0  1  0  0  0  0  0  0  0  0  0
    4.6716   -0.5977    0.4180 C   0  0  2  0  0  0  0  0  0  0  0  0
    1.9506   -1.1473    0.7522 C   0  0  2  0  0  0  0  0  0  0  0  0
    4.3903    0.8872    0.1030 C   0  0  0  0  0  0  0  0  0  0  0  0
    1.2127    0.1779    0.6735 C   0  0  0  0  0  0  0  0  0  0  0  0
    1.9666    1.0987    0.0574 C   0  0  0  0  0  0  0  0  0  0  0  0
    5.8894   -1.1621   -0.2689 C   0  0  1  0  0  0  0  0  0  0  0  0
    2.2255   -1.6277    2.1677 C   0  0  0  0  0  0  0  0  0  0  0  0
   -1.2845   -0.8103    0.3406 C   0  0  1  0  0  0  0  0  0  0  0  0
   -2.7724   -0.8109    0.6486 C   0  0  0  0  0  0  0  0  0  0  0  0
   -3.3836   -1.4421   -0.6049 C   0  0  1  0  0  0  0  0  0  0  0  0
   -1.2713   -0.5026   -1.1457 C   0  0  0  0  0  0  0  0  0  0  0  0
    6.0768   -2.6395    0.0603 C   0  0  0  0  0  0  0  0  0  0  0  0
    1.6703    2.5122   -0.1505 C   0  0  0  0  0  0  0  0  0  0  0  0
   -4.7176   -0.8137   -0.9864 C   0  0  0  0  0  0  0  0  0  0  0  0
    3.1912   -1.4492   -1.0202 H   0  0  0  0  0  0  0  0  0  0  0  0
    4.7745   -0.7329    1.5046 H   0  0  0  0  0  0  0  0  0  0  0  0
    1.3705   -1.9200    0.2329 H   0  0  0  0  0  0  0  0  0  0  0  0
    6.7848   -0.6093    0.0374 H   0  0  0  0  0  0  0  0  0  0  0  0
    1.2977   -1.8967    2.6832 H   0  0  0  0  0  0  0  0  0  0  0  0
    2.8704   -2.5128    2.1539 H   0  0  0  0  0  0  0  0  0  0  0  0
    2.7291   -0.8596    2.7647 H   0  0  0  0  0  0  0  0  0  0  0  0
   -0.8862   -1.8143    0.5325 H   0  0  0  0  0  0  0  0  0  0  0  0
   -3.0021   -1.3887    1.5506 H   0  0  0  0  0  0  0  0  0  0  0  0
   -3.1453    0.2118    0.7921 H   0  0  0  0  0  0  0  0  0  0  0  0
   -3.5315   -2.5142   -0.4232 H   0  0  0  0  0  0  0  0  0  0  0  0
   -1.4689    0.5574   -1.3491 H   0  0  0  0  0  0  0  0  0  0  0  0
   -0.3320   -0.7837   -1.6311 H   0  0  0  0  0  0  0  0  0  0  0  0
    5.2188   -3.2280   -0.2834 H   0  0  0  0  0  0  0  0  0  0  0  0
    6.9608   -3.0391   -0.4477 H   0  0  0  0  0  0  0  0  0  0  0  0
    6.1895   -2.7947    1.1378 H   0  0  0  0  0  0  0  0  0  0  0  0
   -2.7644   -0.8823   -2.5090 H   0  0  0  0  0  0  0  0  0  0  0  0
   -5.1204   -1.3055   -1.8795 H   0  0  0  0  0  0  0  0  0  0  0  0
   -4.5646    0.2443   -1.2317 H   0  0  0  0  0  0  0  0  0  0  0  0
    6.5542   -1.3762   -2.0948 H   0  0  0  0  0  0  0  0  0  0  0  0
   -6.0193   -1.9077    0.2229 H   0  0  0  0  0  0  0  0  0  0  0  0
    2.0798    3.8905   -1.4605 H   0  0  0  0  0  0  0  0  0  0  0  0
   -8.0435    1.2116   -1.5309 H   0  0  0  0  0  0  0  0  0  0  0  0
   -7.9818   -0.4744   -1.6439 H   0  0  0  0  0  0  0  0  0  0  0  0
  1 17  1  0  0  0  0
  1 21  1  0  0  0  0
  2  7  2  0  0  0  0
  2  8  2  0  0  0  0
  2 11  1  0  0  0  0
  2 12  1  0  0  0  0
  3 16  2  0  0  0  0
  4 19  1  0  0  0  0
  4 47  1  0  0  0  0
  5 26  1  0  0  0  0
  5 49  1  0  0  0  0
  6 26  2  0  0  0  0
  9 13  1  0  0  0  0
  9 16  1  0  0  0  0
  9 18  1  0  0  0  0
 10 23  1  0  0  0  0
 10 24  1  0  0  0  0
 10 44  1  0  0  0  0
 11 27  1  0  0  0  0
 11 48  1  0  0  0  0
 12 50  1  0  0  0  0
 12 51  1  0  0  0  0
 13 14  1  0  0  0  0
 13 15  1  0  0  0  0
 13 28  1  0  0  0  0
 14 16  1  0  0  0  0
 14 19  1  0  0  0  0
 14 29  1  0  0  0  0
 15 17  1  0  0  0  0
 15 20  1  0  0  0  0
 15 30  1  0  0  0  0
 17 18  2  0  0  0  0
 18 26  1  0  0  0  0
 19 25  1  0  0  0  0
 19 31  1  0  0  0  0
 20 32  1  0  0  0  0
 20 33  1  0  0  0  0
 20 34  1  0  0  0  0
 21 22  1  0  0  0  0
 21 24  1  0  0  0  0
 21 35  1  0  0  0  0
 22 23  1  0  0  0  0
 22 36  1  0  0  0  0
 22 37  1  0  0  0  0
 23 27  1  0  0  0  0
 23 38  1  0  0  0  0
 24 39  1  0  0  0  0
 24 40  1  0  0  0  0
 25 41  1  0  0  0  0
 25 42  1  0  0  0  0
 25 43  1  0  0  0  0
 27 45  1  0  0  0  0
 27 46  1  0  0  0  0
M  END
> <PUBCHEM_COMPOUND_CID>
73303

> <PUBCHEM_CONFORMER_RMSD>
1

> <PUBCHEM_CONFORMER_DIVERSEORDER>
1
84
33
22
31
91
90
77
60
83
56
76
81
42
87
66
10
36
19
99
92
47
24
54
82
21
41
88
28
69
65
100
89
29
14
20
68
55
70
71
78
16
85
94
40
73
74
75
18
57
23
38
48
79
32
43
51
15
27
26
53
44
58
49
98
35
63
61
2
95
50
86
39
30
25
7
37
64
97
8
6
11
46
93
12
45
34
5
4
80
96
67
9
62
17
59
72
52
3
13

> <PUBCHEM_MMFF94_PARTIAL_CHARGES>
30
1 -0.33
10 -0.9
11 -0.91
12 -0.98
13 0.22
14 0.05
15 0.14
16 0.58
17 -0.04
18 0.12
19 0.28
2 1.58
21 0.23
23 0.27
24 0.27
26 0.71
27 0.36
3 -0.57
4 -0.68
44 0.36
47 0.4
48 0.42
49 0.5
5 -0.65
50 0.42
51 0.42
6 -0.57
7 -0.65
8 -0.65
9 -0.39

> <PUBCHEM_EFFECTIVE_ROTOR_COUNT>
8.4

> <PUBCHEM_PHARMACOPHORE_FEATURES>
12
1 10 cation
1 10 donor
1 11 donor
1 12 donor
1 3 acceptor
1 4 acceptor
1 4 donor
1 5 acceptor
1 6 acceptor
3 5 6 26 anion
5 10 21 22 23 24 rings
7 9 13 14 15 16 17 18 rings

> <PUBCHEM_HEAVY_ATOM_COUNT>
27

> <PUBCHEM_ATOM_DEF_STEREO_COUNT>
6

> <PUBCHEM_ATOM_UDEF_STEREO_COUNT>
0

> <PUBCHEM_BOND_DEF_STEREO_COUNT>
0

> <PUBCHEM_BOND_UDEF_STEREO_COUNT>
0

> <PUBCHEM_ISOTOPIC_ATOM_COUNT>
0

> <PUBCHEM_COMPONENT_COUNT>
1

> <PUBCHEM_CACTVS_TAUTO_COUNT>
1

> <PUBCHEM_CONFORMER_ID>
00011E5700000001

> <PUBCHEM_MMFF94_ENERGY>
76.9555

> <PUBCHEM_FEATURE_SELFOVERLAP>
60.96

> <PUBCHEM_SHAPE_FINGERPRINT>
10165383 225 16950568774338282850
11578080 2 16517109530218981060
11796584 16 17275105076321683398
12166972 35 17989487424831038545
12236239 1 18202001062122281195
12730499 353 17240198832970946587
12778500 126 18407762525952065045
13590594 115 18409453557324023313
14251752 14 18060419093123552715
14251764 18 18131068269049130919
14341114 176 18334857234007669181
15142383 8 18335695023171215181
15183329 4 18412258416081302247
15849732 13 17988923362005989023
1813 80 18272661134416728654
18335252 114 18411971465227050365
21267235 1 18410296874341730074
21521721 280 17604153713789847292
21792961 116 17313388868984417098
22079108 93 7853569093895358854
221357 26 18260543411812658836
22224240 67 10231748981817100958
23559900 14 18340761645777143699
249057 3 18412262852640412599
29717793 49 17988927768948513158
3004659 81 18131918152540038734
34797466 226 16226055491932287198
4073 2 18115871973880116330
59682541 35 12685104674711104749
59755656 215 17704076148953028295

> <PUBCHEM_SHAPE_MULTIPOLES>
508.21
18.33
2.5
1.38
28.52
1.81
-0.04
-3.95
1.7
-3.29
0.1
0.26
-0.35
-0.56

> <PUBCHEM_SHAPE_SELFOVERLAP>
1038.463

> <PUBCHEM_SHAPE_VOLUME>
298.1

> <PUBCHEM_COORDINATE_TYPE>
2
5
10

$$$$
