443639
  -OEChem-05272508503D

 34 36  0     1  0  0  0  0  0999 V2000
    0.1900    0.7318   -0.1330 O   0  0  0  0  0  0  0  0  0  0  0  0
   -0.3133   -1.4736    1.6496 O   0  0  0  0  0  0  0  0  0  0  0  0
    4.1282   -2.0892   -0.0497 O   0  0  0  0  0  0  0  0  0  0  0  0
    4.5166    2.6533   -0.0412 O   0  0  0  0  0  0  0  0  0  0  0  0
   -6.0952    0.7549    0.2110 O   0  0  0  0  0  0  0  0  0  0  0  0
   -0.1779   -1.6756    0.2422 C   0  0  1  0  0  0  0  0  0  0  0  0
   -0.5971   -0.4081   -0.5142 C   0  0  1  0  0  0  0  0  0  0  0  0
    1.2792   -2.0008   -0.0804 C   0  0  0  0  0  0  0  0  0  0  0  0
    2.1253   -0.7562   -0.0765 C   0  0  0  0  0  0  0  0  0  0  0  0
    1.5441    0.5177   -0.1110 C   0  0  0  0  0  0  0  0  0  0  0  0
   -2.0693   -0.0961   -0.3199 C   0  0  0  0  0  0  0  0  0  0  0  0
    3.5222   -0.8669   -0.0583 C   0  0  0  0  0  0  0  0  0  0  0  0
    2.3472    1.6609   -0.0859 C   0  0  0  0  0  0  0  0  0  0  0  0
   -3.0146   -0.6312   -1.1935 C   0  0  0  0  0  0  0  0  0  0  0  0
   -2.4740    0.7242    0.7320 C   0  0  0  0  0  0  0  0  0  0  0  0
    4.3231    0.2757   -0.0475 C   0  0  0  0  0  0  0  0  0  0  0  0
    3.7355    1.5388   -0.0570 C   0  0  0  0  0  0  0  0  0  0  0  0
   -4.3680   -0.3452   -1.0148 C   0  0  0  0  0  0  0  0  0  0  0  0
   -3.8275    1.0101    0.9108 C   0  0  0  0  0  0  0  0  0  0  0  0
   -4.7745    0.4755    0.0373 C   0  0  0  0  0  0  0  0  0  0  0  0
   -0.8052   -2.5339   -0.0261 H   0  0  0  0  0  0  0  0  0  0  0  0
   -0.4341   -0.5539   -1.5923 H   0  0  0  0  0  0  0  0  0  0  0  0
    1.3427   -2.4533   -1.0774 H   0  0  0  0  0  0  0  0  0  0  0  0
    1.6639   -2.7151    0.6572 H   0  0  0  0  0  0  0  0  0  0  0  0
    1.8843    2.6450   -0.0960 H   0  0  0  0  0  0  0  0  0  0  0  0
   -1.2619   -1.4877    1.8607 H   0  0  0  0  0  0  0  0  0  0  0  0
   -2.7107   -1.2739   -2.0153 H   0  0  0  0  0  0  0  0  0  0  0  0
   -1.7557    1.1450    1.4301 H   0  0  0  0  0  0  0  0  0  0  0  0
    5.4068    0.1893   -0.0297 H   0  0  0  0  0  0  0  0  0  0  0  0
   -5.1011   -0.7651   -1.6981 H   0  0  0  0  0  0  0  0  0  0  0  0
   -4.1315    1.6493    1.7354 H   0  0  0  0  0  0  0  0  0  0  0  0
    5.0930   -1.9676   -0.0372 H   0  0  0  0  0  0  0  0  0  0  0  0
    3.9443    3.4398   -0.0517 H   0  0  0  0  0  0  0  0  0  0  0  0
   -6.1951    1.3359    0.9846 H   0  0  0  0  0  0  0  0  0  0  0  0
  1  7  1  0  0  0  0
  1 10  1  0  0  0  0
  2  6  1  0  0  0  0
  2 26  1  0  0  0  0
  3 12  1  0  0  0  0
  3 32  1  0  0  0  0
  4 17  1  0  0  0  0
  4 33  1  0  0  0  0
  5 20  1  0  0  0  0
  5 34  1  0  0  0  0
  6  7  1  0  0  0  0
  6  8  1  0  0  0  0
  6 21  1  0  0  0  0
  7 11  1  0  0  0  0
  7 22  1  0  0  0  0
  8  9  1  0  0  0  0
  8 23  1  0  0  0  0
  8 24  1  0  0  0  0
  9 10  1  0  0  0  0
  9 12  2  0  0  0  0
 10 13  2  0  0  0  0
 11 14  2  0  0  0  0
 11 15  1  0  0  0  0
 12 16  1  0  0  0  0
 13 17  1  0  0  0  0
 13 25  1  0  0  0  0
 14 18  1  0  0  0  0
 14 27  1  0  0  0  0
 15 19  2  0  0  0  0
 15 28  1  0  0  0  0
 16 17  2  0  0  0  0
 16 29  1  0  0  0  0
 18 20  2  0  0  0  0
 18 30  1  0  0  0  0
 19 20  1  0  0  0  0
 19 31  1  0  0  0  0
M  END
> <PUBCHEM_COMPOUND_CID>
443639

> <PUBCHEM_CONFORMER_RMSD>
0.6

> <PUBCHEM_CONFORMER_DIVERSEORDER>
1
3
2
4

> <PUBCHEM_MMFF94_PARTIAL_CHARGES>
30
1 -0.36
10 0.08
11 -0.14
12 0.08
13 -0.15
14 -0.15
15 -0.15
16 -0.15
17 0.08
18 -0.15
19 -0.15
2 -0.68
20 0.08
25 0.15
26 0.4
27 0.15
28 0.15
29 0.15
3 -0.53
30 0.15
31 0.15
32 0.45
33 0.45
34 0.45
4 -0.53
5 -0.53
6 0.28
7 0.42
8 0.14
9 -0.14

> <PUBCHEM_EFFECTIVE_ROTOR_COUNT>
1.8

> <PUBCHEM_PHARMACOPHORE_FEATURES>
9
1 1 acceptor
1 2 acceptor
1 2 donor
1 3 donor
1 4 donor
1 5 donor
6 1 6 7 8 9 10 rings
6 11 14 15 18 19 20 rings
6 9 10 12 13 16 17 rings

> <PUBCHEM_HEAVY_ATOM_COUNT>
20

> <PUBCHEM_ATOM_DEF_STEREO_COUNT>
2

> <PUBCHEM_ATOM_UDEF_STEREO_COUNT>
0

> <PUBCHEM_BOND_DEF_STEREO_COUNT>
0

> <PUBCHEM_BOND_UDEF_STEREO_COUNT>
0

> <PUBCHEM_ISOTOPIC_ATOM_COUNT>
0

> <PUBCHEM_COMPONENT_COUNT>
1

> <PUBCHEM_CACTVS_TAUTO_COUNT>
18

> <PUBCHEM_CONFORMER_ID>
0006C4F700000001

> <PUBCHEM_MMFF94_ENERGY>
57.4543

> <PUBCHEM_FEATURE_SELFOVERLAP>
45.704

> <PUBCHEM_SHAPE_FINGERPRINT>
10411042 1 17833832664674938750
11045977 3 18040726861271113883
11471102 20 18409166593483758614
12107183 9 17623861127855929713
12236239 1 18201718436505525557
12403259 415 17822005385228379429
12616971 3 18343578517321242007
13140716 1 18333731347123326906
13167372 99 18199754648572463129
13167823 11 18273211993494074431
14739800 52 17489007362908529352
15196674 1 18411136969670573079
15342168 16 18188214328444425196
15475509 35 16371275637717124576
15536298 74 18343300362164249478
15848702 151 18200595765697158806
17834072 33 18343862221501997823
18186145 218 18260263040574140278
19784866 240 16128109832367482870
200 152 18273491274074643607
204376 136 18186802521254497843
20612939 158 18411419496929933284
20645477 70 18411135805708224718
21033648 29 17313373522385591789
21267235 1 18342465789694214567
21503847 285 18337392647322578192
22079108 93 18187368753095755011
22854114 59 18186521003528509429
23402539 116 17560793325855219413
23402655 69 18272649090679603492
23557571 272 16009031610440180047
23559900 14 18411417337147017122
29717793 49 17846214411043018221
335352 9 18410577297647312230
34797466 226 15410611540323426649
4047638 21 18333450950098530414
4340502 62 18041007228731668739
474 4 18408886273515822245
495365 180 18272644684523127682
5104073 3 18335699476725364643
633830 44 18408882923578462135
69090 78 18411415133053516198
8272917 22 18342741793177898566
9971528 1 18272366426593212854
9981440 41 17478874443434367776
9999458 23 18187085035961733334

> <PUBCHEM_SHAPE_MULTIPOLES>
382.24
10.76
2.02
0.93
6.47
0.08
-0.1
3.85
0.52
-2.64
-0.15
0.73
-0.17
-0.63

> <PUBCHEM_SHAPE_SELFOVERLAP>
842.408

> <PUBCHEM_SHAPE_VOLUME>
204.3

> <PUBCHEM_COORDINATE_TYPE>
2
5
10

$$$$
