61290
  -OEChem-06022503233D

 33 32  0     1  0  0  0  0  0999 V2000
   -1.8200    1.3521    0.4114 O   0  0  0  0  0  0  0  0  0  0  0  0
   -3.3394    0.2538   -0.9369 O   0  0  0  0  0  0  0  0  0  0  0  0
   -0.5478   -1.2820    0.4327 C   0  0  1  0  0  0  0  0  0  0  0  0
    0.6270   -2.2217    0.0840 C   0  0  0  0  0  0  0  0  0  0  0  0
   -1.0532   -0.5156   -0.7993 C   0  0  0  0  0  0  0  0  0  0  0  0
    1.8305   -1.5483   -0.5916 C   0  0  0  0  0  0  0  0  0  0  0  0
   -1.6858   -2.1065    1.0503 C   0  0  0  0  0  0  0  0  0  0  0  0
    2.4834   -0.5133    0.2817 C   0  0  0  0  0  0  0  0  0  0  0  0
   -2.2166    0.3883   -0.4682 C   0  0  0  0  0  0  0  0  0  0  0  0
    2.7394    0.7783   -0.0011 C   0  0  0  0  0  0  0  0  0  0  0  0
    3.4083    1.6603    1.0201 C   0  0  0  0  0  0  0  0  0  0  0  0
    2.4075    1.4734   -1.2907 C   0  0  0  0  0  0  0  0  0  0  0  0
   -2.8332    2.2813    0.8075 C   0  0  0  0  0  0  0  0  0  0  0  0
   -0.2103   -0.5660    1.1924 H   0  0  0  0  0  0  0  0  0  0  0  0
    0.9658   -2.7242    0.9999 H   0  0  0  0  0  0  0  0  0  0  0  0
    0.2668   -3.0158   -0.5836 H   0  0  0  0  0  0  0  0  0  0  0  0
   -0.2768    0.1145   -1.2422 H   0  0  0  0  0  0  0  0  0  0  0  0
   -1.3777   -1.2156   -1.5789 H   0  0  0  0  0  0  0  0  0  0  0  0
    1.5411   -1.1608   -1.5704 H   0  0  0  0  0  0  0  0  0  0  0  0
    2.5802   -2.3241   -0.7938 H   0  0  0  0  0  0  0  0  0  0  0  0
   -2.1133   -2.8034    0.3213 H   0  0  0  0  0  0  0  0  0  0  0  0
   -1.3200   -2.6916    1.9012 H   0  0  0  0  0  0  0  0  0  0  0  0
   -2.4911   -1.4657    1.4232 H   0  0  0  0  0  0  0  0  0  0  0  0
    2.7899   -0.8883    1.2579 H   0  0  0  0  0  0  0  0  0  0  0  0
    4.3549    2.0453    0.6268 H   0  0  0  0  0  0  0  0  0  0  0  0
    3.6281    1.1292    1.9522 H   0  0  0  0  0  0  0  0  0  0  0  0
    2.7628    2.5095    1.2673 H   0  0  0  0  0  0  0  0  0  0  0  0
    1.6679    2.2611   -1.1125 H   0  0  0  0  0  0  0  0  0  0  0  0
    2.0056    0.8090   -2.0575 H   0  0  0  0  0  0  0  0  0  0  0  0
    3.3076    1.9358   -1.7101 H   0  0  0  0  0  0  0  0  0  0  0  0
   -2.3867    2.9940    1.5060 H   0  0  0  0  0  0  0  0  0  0  0  0
   -3.6496    1.7576    1.3139 H   0  0  0  0  0  0  0  0  0  0  0  0
   -3.2060    2.8291   -0.0630 H   0  0  0  0  0  0  0  0  0  0  0  0
  1  9  1  0  0  0  0
  1 13  1  0  0  0  0
  2  9  2  0  0  0  0
  3  4  1  0  0  0  0
  3  5  1  0  0  0  0
  3  7  1  0  0  0  0
  3 14  1  0  0  0  0
  4  6  1  0  0  0  0
  4 15  1  0  0  0  0
  4 16  1  0  0  0  0
  5  9  1  0  0  0  0
  5 17  1  0  0  0  0
  5 18  1  0  0  0  0
  6  8  1  0  0  0  0
  6 19  1  0  0  0  0
  6 20  1  0  0  0  0
  7 21  1  0  0  0  0
  7 22  1  0  0  0  0
  7 23  1  0  0  0  0
  8 10  2  0  0  0  0
  8 24  1  0  0  0  0
 10 11  1  0  0  0  0
 10 12  1  0  0  0  0
 11 25  1  0  0  0  0
 11 26  1  0  0  0  0
 11 27  1  0  0  0  0
 12 28  1  0  0  0  0
 12 29  1  0  0  0  0
 12 30  1  0  0  0  0
 13 31  1  0  0  0  0
 13 32  1  0  0  0  0
 13 33  1  0  0  0  0
M  END
> <PUBCHEM_COMPOUND_CID>
61290

> <PUBCHEM_CONFORMER_RMSD>
0.6

> <PUBCHEM_CONFORMER_DIVERSEORDER>
1
111
255
145
221
241
87
169
205
74
247
238
278
55
290
171
191
195
151
313
312
156
20
242
89
183
185
317
218
209
137
275
253
304
305
170
219
116
30
316
225
296
96
324
51
292
164
228
181
289
50
214
58
176
258
159
143
147
280
318
78
190
206
154
326
130
201
174
136
115
254
240
132
224
259
127
283
323
163
57
180
271
308
189
204
133
295
196
71
321
314
265
79
227
125
197
172
243
223
177
267
153
138
150
10
216
97
203
41
128
249
220
303
232
26
119
270
8
2
69
248
239
251
212
80
246
3
184
235
274
281
325
264
70
226
202
291
200
40
47
149
208
306
268
194
211
230
207
4
322
273
250
237
260
82
198
98
210
105
103
155
14
49
213
175
94
178
38
307
86
139
112
17
31
302
121
222
88
22
277
142
106
294
42
15
234
34
90
299
244
104
293
122
187
315
29
245
75
192
101
25
61
298
257
35
109
134
93
276
282
269
161
83
141
73
110
56
95
199
18
92
68
108
12
266
124
231
256
158
162
62
13
168
165
129
43
252
81
233
16
261
135
27
67
166
52
60
152
160
173
28
229
84
285
319
131
193
188
311
39
148
186
263
32
144
85
140
65
300
215
146
5
64
287
310
11
59
36
102
217
53
327
23
7
63
284
6
272
46
99
288
262
54
48
279
9
286
66
44
37
179
100
167
24
21
33
45
123
301
182
309
236
126
320
91
157
118
117
72
76
114
19
297
107
113
120
77

> <PUBCHEM_MMFF94_PARTIAL_CHARGES>
11
1 -0.43
10 -0.28
11 0.14
12 0.14
13 0.28
2 -0.57
24 0.15
5 0.06
6 0.14
8 -0.29
9 0.66

> <PUBCHEM_EFFECTIVE_ROTOR_COUNT>
6

> <PUBCHEM_PHARMACOPHORE_FEATURES>
4
1 2 acceptor
1 7 hydrophobe
3 10 11 12 hydrophobe
5 3 4 5 6 8 hydrophobe

> <PUBCHEM_HEAVY_ATOM_COUNT>
13

> <PUBCHEM_ATOM_DEF_STEREO_COUNT>
0

> <PUBCHEM_ATOM_UDEF_STEREO_COUNT>
1

> <PUBCHEM_BOND_DEF_STEREO_COUNT>
0

> <PUBCHEM_BOND_UDEF_STEREO_COUNT>
0

> <PUBCHEM_ISOTOPIC_ATOM_COUNT>
0

> <PUBCHEM_COMPONENT_COUNT>
1

> <PUBCHEM_CACTVS_TAUTO_COUNT>
1

> <PUBCHEM_CONFORMER_ID>
0000EF6A00000001

> <PUBCHEM_MMFF94_ENERGY>
14.1337

> <PUBCHEM_FEATURE_SELFOVERLAP>
20.302

> <PUBCHEM_SHAPE_FINGERPRINT>
100427 49 16607732583617593542
10149128 76 18412824685791170762
12162725 195 18342450400789307262
13618510 140 18408325514259433804
13764800 53 18335707207639980154
14251711 518 17547006330157801849
15276787 5 15141501581294910220
15775835 57 18200597986211068280
18186145 218 18263926536224587631
18981168 100 18266204818674776938
19107657 9 18335994103097799876
19973954 147 18335990838980650942
20304884 271 18341616983870735672
20510252 161 18120099643417567722
20653085 51 17986961760448240851
20671657 1 18338234856424482630
21028194 46 18408316679300566270
21041028 32 16461928988105504827
21524375 3 18409441462563637966
21947302 44 18411415081756579622
22802520 49 18129401374613271878
22959321 54 18413101775448088089
230 275 18408604755905780998
23419403 2 16749558541145087887
23557571 272 18196094567114755462
2748010 2 18336275616755661334
474 4 18334578997341607525
526903 126 18271236218301552609
6333272 397 18260551108610350331
7832392 63 17697033639384798413
8050 44 18409439276298449997
81228 2 17823440325465954059

> <PUBCHEM_SHAPE_MULTIPOLES>
255.8
5.61
2.71
1.14
0.64
0.13
0.06
-3.57
-0.31
-0.57
-0.68
0.08
-0.22
0.13

> <PUBCHEM_SHAPE_SELFOVERLAP>
476.698

> <PUBCHEM_SHAPE_VOLUME>
161.5

> <PUBCHEM_COORDINATE_TYPE>
2
5
10

$$$$
