68316
  -OEChem-06132511493D

 25 25  0     0  0  0  0  0  0999 V2000
   -2.6600    1.0829   -0.6572 O   0  0  0  0  0  0  0  0  0  0  0  0
   -0.5199   -1.8557   -0.1255 C   0  0  0  0  0  0  0  0  0  0  0  0
    0.9113   -1.6605    0.3914 C   0  0  0  0  0  0  0  0  0  0  0  0
   -1.3569   -0.6109   -0.0526 C   0  0  0  0  0  0  0  0  0  0  0  0
    1.7173   -0.7282   -0.4714 C   0  0  0  0  0  0  0  0  0  0  0  0
    2.3802    0.3821   -0.0962 C   0  0  0  0  0  0  0  0  0  0  0  0
   -1.6096    0.1466    1.0954 C   0  0  0  0  0  0  0  0  0  0  0  0
   -2.0026   -0.0232   -1.0938 C   0  0  0  0  0  0  0  0  0  0  0  0
    3.1701    1.2734   -1.0123 C   0  0  0  0  0  0  0  0  0  0  0  0
    2.3859    0.8142    1.3462 C   0  0  0  0  0  0  0  0  0  0  0  0
   -2.4158    1.1793    0.6761 C   0  0  0  0  0  0  0  0  0  0  0  0
   -0.4944   -2.2292   -1.1575 H   0  0  0  0  0  0  0  0  0  0  0  0
   -1.0091   -2.6346    0.4735 H   0  0  0  0  0  0  0  0  0  0  0  0
    0.8738   -1.3477    1.4378 H   0  0  0  0  0  0  0  0  0  0  0  0
    1.4148   -2.6354    0.3823 H   0  0  0  0  0  0  0  0  0  0  0  0
    1.7642   -1.0068   -1.5236 H   0  0  0  0  0  0  0  0  0  0  0  0
   -1.2620   -0.0198    2.1049 H   0  0  0  0  0  0  0  0  0  0  0  0
   -2.0994   -0.2389   -2.1480 H   0  0  0  0  0  0  0  0  0  0  0  0
    4.2245    1.2884   -0.7187 H   0  0  0  0  0  0  0  0  0  0  0  0
    3.1168    0.9305   -2.0508 H   0  0  0  0  0  0  0  0  0  0  0  0
    2.7805    2.2959   -0.9777 H   0  0  0  0  0  0  0  0  0  0  0  0
    1.5645    1.5125    1.5350 H   0  0  0  0  0  0  0  0  0  0  0  0
    3.3240    1.3290    1.5846 H   0  0  0  0  0  0  0  0  0  0  0  0
    2.3216   -0.0168    2.0525 H   0  0  0  0  0  0  0  0  0  0  0  0
   -2.8759    2.0190    1.1761 H   0  0  0  0  0  0  0  0  0  0  0  0
  1  8  1  0  0  0  0
  1 11  1  0  0  0  0
  2  3  1  0  0  0  0
  2  4  1  0  0  0  0
  2 12  1  0  0  0  0
  2 13  1  0  0  0  0
  3  5  1  0  0  0  0
  3 14  1  0  0  0  0
  3 15  1  0  0  0  0
  4  7  1  0  0  0  0
  4  8  2  0  0  0  0
  5  6  2  0  0  0  0
  5 16  1  0  0  0  0
  6  9  1  0  0  0  0
  6 10  1  0  0  0  0
  7 11  2  0  0  0  0
  7 17  1  0  0  0  0
  8 18  1  0  0  0  0
  9 19  1  0  0  0  0
  9 20  1  0  0  0  0
  9 21  1  0  0  0  0
 10 22  1  0  0  0  0
 10 23  1  0  0  0  0
 10 24  1  0  0  0  0
 11 25  1  0  0  0  0
M  END
> <PUBCHEM_COMPOUND_CID>
68316

> <PUBCHEM_CONFORMER_RMSD>
0.6

> <PUBCHEM_CONFORMER_DIVERSEORDER>
2
9
6
10
4
7
16
8
19
13
3
15
20
1
21
14
17
12
5
22
11
18

> <PUBCHEM_MMFF94_PARTIAL_CHARGES>
15
1 -0.28
10 0.14
11 -0.01
16 0.15
17 0.15
18 0.15
2 0.18
25 0.15
3 0.14
4 -0.18
5 -0.29
6 -0.28
7 -0.15
8 -0.01
9 0.14

> <PUBCHEM_EFFECTIVE_ROTOR_COUNT>
3

> <PUBCHEM_PHARMACOPHORE_FEATURES>
3
1 1 acceptor
3 6 9 10 hydrophobe
5 1 4 7 8 11 rings

> <PUBCHEM_HEAVY_ATOM_COUNT>
11

> <PUBCHEM_ATOM_DEF_STEREO_COUNT>
0

> <PUBCHEM_ATOM_UDEF_STEREO_COUNT>
0

> <PUBCHEM_BOND_DEF_STEREO_COUNT>
0

> <PUBCHEM_BOND_UDEF_STEREO_COUNT>
0

> <PUBCHEM_ISOTOPIC_ATOM_COUNT>
0

> <PUBCHEM_COMPONENT_COUNT>
1

> <PUBCHEM_CACTVS_TAUTO_COUNT>
1

> <PUBCHEM_CONFORMER_ID>
00010ADC00000002

> <PUBCHEM_MMFF94_ENERGY>
6.9813

> <PUBCHEM_FEATURE_SELFOVERLAP>
15.223

> <PUBCHEM_SHAPE_FINGERPRINT>
100427 49 16825595297743993278
10857977 72 16444215044206657419
12897270 3 16917343757691971806
13618510 140 18334862705617000580
13693222 7 18410855468886894956
13764800 53 18337121162503082403
14390081 3 18272927219739594785
15276787 5 15792833539179038328
15775835 57 18271811189667819164
17357990 137 17128469601214631171
18522851 268 15554444128135969388
20361792 2 9943805586273020338
20653085 51 18340497681039213646
21028194 46 18412824698486389410
21524375 3 18411417293427457678
22802520 49 17703526462016371862
230 275 18409443653107449458
305870 269 18336536145350884346
369184 2 16081082693022590251
549884 4 17775289330892634072
81228 2 17908143531299115722

> <PUBCHEM_SHAPE_MULTIPOLES>
220.51
4.79
1.71
1.2
1.49
0.53
-0.09
-2.58
0.65
0.03
-0.05
0.16
-0.31
-0.2

> <PUBCHEM_SHAPE_SELFOVERLAP>
440.468

> <PUBCHEM_SHAPE_VOLUME>
133.2

> <PUBCHEM_COORDINATE_TYPE>
2
5
10

$$$$
