10466745
  -OEChem-06022503233D

 43 44  0     1  0  0  0  0  0999 V2000
    3.6690   -0.6332    0.4322 O   0  0  0  0  0  0  0  0  0  0  0  0
   -2.2229   -1.6270   -1.3854 O   0  0  0  0  0  0  0  0  0  0  0  0
   -0.0740   -0.1968    0.0828 C   0  0  2  0  0  0  0  0  0  0  0  0
    1.2668   -0.8186    0.4883 C   0  0  2  0  0  0  0  0  0  0  0  0
   -0.1429    1.2619    0.5588 C   0  0  1  0  0  0  0  0  0  0  0  0
    2.4690   -0.1014   -0.1405 C   0  0  1  0  0  0  0  0  0  0  0  0
   -1.0987   -1.1792    0.6696 C   0  0  2  0  0  0  0  0  0  0  0  0
    1.0381   -2.2915    0.1762 C   0  0  0  0  0  0  0  0  0  0  0  0
   -0.3683   -2.5361    0.7347 C   0  0  0  0  0  0  0  0  0  0  0  0
    1.0460    2.0472   -0.0352 C   0  0  0  0  0  0  0  0  0  0  0  0
    2.3990    1.3881    0.2601 C   0  0  0  0  0  0  0  0  0  0  0  0
   -1.4611    1.9346    0.1791 C   0  0  0  0  0  0  0  0  0  0  0  0
    2.5850   -0.2572   -1.6602 C   0  0  0  0  0  0  0  0  0  0  0  0
   -2.3095   -1.2977   -0.2034 C   0  0  0  0  0  0  0  0  0  0  0  0
   -1.5215    3.3518    0.7436 C   0  0  0  0  0  0  0  0  0  0  0  0
   -1.6367    1.9520   -1.3374 C   0  0  0  0  0  0  0  0  0  0  0  0
   -3.6376   -0.9969    0.4369 C   0  0  0  0  0  0  0  0  0  0  0  0
   -0.1317   -0.2271   -1.0109 H   0  0  0  0  0  0  0  0  0  0  0  0
    1.3763   -0.7462    1.5831 H   0  0  0  0  0  0  0  0  0  0  0  0
   -0.0472    1.2747    1.6536 H   0  0  0  0  0  0  0  0  0  0  0  0
   -1.3926   -0.8820    1.6827 H   0  0  0  0  0  0  0  0  0  0  0  0
    1.7826   -2.9422    0.6443 H   0  0  0  0  0  0  0  0  0  0  0  0
    1.0418   -2.4838   -0.9021 H   0  0  0  0  0  0  0  0  0  0  0  0
   -0.8728   -3.3447    0.1952 H   0  0  0  0  0  0  0  0  0  0  0  0
   -0.2912   -2.8497    1.7833 H   0  0  0  0  0  0  0  0  0  0  0  0
    1.0850    3.0625    0.3730 H   0  0  0  0  0  0  0  0  0  0  0  0
    0.9656    2.1440   -1.1218 H   0  0  0  0  0  0  0  0  0  0  0  0
    3.2020    1.9501   -0.2339 H   0  0  0  0  0  0  0  0  0  0  0  0
    2.6052    1.4851    1.3353 H   0  0  0  0  0  0  0  0  0  0  0  0
   -2.2914    1.3862    0.6263 H   0  0  0  0  0  0  0  0  0  0  0  0
    1.7106    0.1185   -2.1974 H   0  0  0  0  0  0  0  0  0  0  0  0
    3.4649    0.2811   -2.0324 H   0  0  0  0  0  0  0  0  0  0  0  0
    2.7408   -1.3054   -1.9370 H   0  0  0  0  0  0  0  0  0  0  0  0
    3.6136   -0.5424    1.3987 H   0  0  0  0  0  0  0  0  0  0  0  0
   -0.8525    4.0444    0.2238 H   0  0  0  0  0  0  0  0  0  0  0  0
   -2.5356    3.7534    0.6339 H   0  0  0  0  0  0  0  0  0  0  0  0
   -1.2788    3.3662    1.8113 H   0  0  0  0  0  0  0  0  0  0  0  0
   -0.9252    2.6080   -1.8466 H   0  0  0  0  0  0  0  0  0  0  0  0
   -2.6302    2.3548   -1.5728 H   0  0  0  0  0  0  0  0  0  0  0  0
   -1.6000    0.9678   -1.8046 H   0  0  0  0  0  0  0  0  0  0  0  0
   -4.0613   -1.9260    0.8265 H   0  0  0  0  0  0  0  0  0  0  0  0
   -3.5384   -0.2814    1.2550 H   0  0  0  0  0  0  0  0  0  0  0  0
   -4.3113   -0.5703   -0.3112 H   0  0  0  0  0  0  0  0  0  0  0  0
  1  6  1  0  0  0  0
  1 34  1  0  0  0  0
  2 14  2  0  0  0  0
  3  4  1  0  0  0  0
  3  5  1  0  0  0  0
  3  7  1  0  0  0  0
  3 18  1  0  0  0  0
  4  6  1  0  0  0  0
  4  8  1  0  0  0  0
  4 19  1  0  0  0  0
  5 10  1  0  0  0  0
  5 12  1  0  0  0  0
  5 20  1  0  0  0  0
  6 11  1  0  0  0  0
  6 13  1  0  0  0  0
  7  9  1  0  0  0  0
  7 14  1  0  0  0  0
  7 21  1  0  0  0  0
  8  9  1  0  0  0  0
  8 22  1  0  0  0  0
  8 23  1  0  0  0  0
  9 24  1  0  0  0  0
  9 25  1  0  0  0  0
 10 11  1  0  0  0  0
 10 26  1  0  0  0  0
 10 27  1  0  0  0  0
 11 28  1  0  0  0  0
 11 29  1  0  0  0  0
 12 15  1  0  0  0  0
 12 16  1  0  0  0  0
 12 30  1  0  0  0  0
 13 31  1  0  0  0  0
 13 32  1  0  0  0  0
 13 33  1  0  0  0  0
 14 17  1  0  0  0  0
 15 35  1  0  0  0  0
 15 36  1  0  0  0  0
 15 37  1  0  0  0  0
 16 38  1  0  0  0  0
 16 39  1  0  0  0  0
 16 40  1  0  0  0  0
 17 41  1  0  0  0  0
 17 42  1  0  0  0  0
 17 43  1  0  0  0  0
M  END
> <PUBCHEM_COMPOUND_CID>
10466745

> <PUBCHEM_CONFORMER_RMSD>
0.6

> <PUBCHEM_CONFORMER_DIVERSEORDER>
1
2

> <PUBCHEM_MMFF94_PARTIAL_CHARGES>
7
1 -0.68
14 0.45
17 0.06
2 -0.57
34 0.4
6 0.28
7 0.06

> <PUBCHEM_EFFECTIVE_ROTOR_COUNT>
3.4

> <PUBCHEM_PHARMACOPHORE_FEATURES>
6
1 1 acceptor
1 1 donor
1 2 acceptor
3 12 15 16 hydrophobe
5 3 4 7 8 9 rings
6 3 4 5 6 10 11 rings

> <PUBCHEM_HEAVY_ATOM_COUNT>
17

> <PUBCHEM_ATOM_DEF_STEREO_COUNT>
5

> <PUBCHEM_ATOM_UDEF_STEREO_COUNT>
0

> <PUBCHEM_BOND_DEF_STEREO_COUNT>
0

> <PUBCHEM_BOND_UDEF_STEREO_COUNT>
0

> <PUBCHEM_ISOTOPIC_ATOM_COUNT>
0

> <PUBCHEM_COMPONENT_COUNT>
1

> <PUBCHEM_CACTVS_TAUTO_COUNT>
3

> <PUBCHEM_CONFORMER_ID>
009FB5B900000001

> <PUBCHEM_MMFF94_ENERGY>
51.453

> <PUBCHEM_FEATURE_SELFOVERLAP>
30.509

> <PUBCHEM_SHAPE_FINGERPRINT>
10353120 184 18410019865724896911
104564 63 18338529563999805177
10967382 1 18193839477181587113
11206711 2 18408328778302515086
11680986 33 17833550098253750098
12382932 28 17906453582011016128
12423570 1 10898180755706669186
12524768 44 17981902031296594618
13132413 78 18125732420344422889
13140716 1 18192432098277841218
14178342 30 18266733576494113376
14614273 12 18187922824834739301
14817 1 12489867800179641309
15490181 7 18195254321050581208
15490181 8 17477762378017344745
16945 1 18410586096980545955
193761 8 18121780525976535987
20510252 161 18413105069872796304
20511035 2 17614021593771847114
20588541 1 17904760329566751768
20871999 31 18267891426984145076
21041028 32 18267880543647708667
21501502 16 18191308173897555898
22802520 49 17842568348691218486
2334 1 17832993023889286754
23402539 116 18341321292916583854
23419403 2 14944668126455839699
23557571 272 18272664428704201612
23559900 14 18054515708606240622
238 59 16743650332835618237
25 1 18263075677507714691
2748010 2 18410567422573687976
3060560 45 18123732408672685463
353137 74 18333443261695607531
589210 1 18120655725676311987
5939293 188 17979915239470598353
6992083 37 17987812945968224099
7364860 26 16684008363657582128
81228 2 18337966648263912072

> <PUBCHEM_SHAPE_MULTIPOLES>
338.11
4.41
3.36
1.12
0.65
1.33
-0.45
-0.81
-0.43
-1.72
0.52
-0.02
0.04
-0.12

> <PUBCHEM_SHAPE_SELFOVERLAP>
693.009

> <PUBCHEM_SHAPE_VOLUME>
196.8

> <PUBCHEM_COORDINATE_TYPE>
2
5
10

$$$$
