5311264
  -OEChem-06022503233D

 41 40  0     1  0  0  0  0  0999 V2000
    1.1484    2.6485   -0.4249 P   0  0  1  0  0  0  0  0  0  0  0  0
    1.4768    1.1703   -1.0426 O   0  0  0  0  0  0  0  0  0  0  0  0
    0.0855    2.2372    0.7500 O   0  0  0  0  0  0  0  0  0  0  0  0
   -0.7187   -0.3268    1.6060 O   0  0  0  0  0  0  0  0  0  0  0  0
   -2.8981   -0.5638   -0.1092 O   0  0  0  0  0  0  0  0  0  0  0  0
    2.3944    3.1994    0.2356 O   0  5  0  0  0  0  0  0  0  0  0  0
    0.4272    3.4528   -1.4859 O   0  0  0  0  0  0  0  0  0  0  0  0
   -5.1302   -1.1493   -0.0002 O   0  0  0  0  0  0  0  0  0  0  0  0
    2.9155   -2.0984    0.0400 N   0  3  0  0  0  0  0  0  0  0  0  0
    2.0669   -1.1421   -0.7857 C   0  0  0  0  0  0  0  0  0  0  0  0
    4.3872   -1.7550   -0.1395 C   0  0  0  0  0  0  0  0  0  0  0  0
    2.6673   -3.5263   -0.4243 C   0  0  0  0  0  0  0  0  0  0  0  0
    2.5402   -1.9701    1.5092 C   0  0  0  0  0  0  0  0  0  0  0  0
    2.2939    0.2758   -0.2993 C   0  0  0  0  0  0  0  0  0  0  0  0
   -1.6586    0.7425    1.4755 C   0  0  1  0  0  0  0  0  0  0  0  0
   -1.1719    1.6915    0.3862 C   0  0  0  0  0  0  0  0  0  0  0  0
   -3.0118    0.1384    1.1240 C   0  0  0  0  0  0  0  0  0  0  0  0
   -4.0411   -1.1642   -0.5575 C   0  0  0  0  0  0  0  0  0  0  0  0
   -3.7729   -1.8604   -1.8573 C   0  0  0  0  0  0  0  0  0  0  0  0
    1.0158   -1.4365   -0.6846 H   0  0  0  0  0  0  0  0  0  0  0  0
    2.3457   -1.2526   -1.8405 H   0  0  0  0  0  0  0  0  0  0  0  0
    4.9784   -2.5584    0.3119 H   0  0  0  0  0  0  0  0  0  0  0  0
    4.6222   -0.8192    0.3731 H   0  0  0  0  0  0  0  0  0  0  0  0
    4.6049   -1.6886   -1.2096 H   0  0  0  0  0  0  0  0  0  0  0  0
    2.9388   -3.5972   -1.4817 H   0  0  0  0  0  0  0  0  0  0  0  0
    3.2854   -4.2021    0.1741 H   0  0  0  0  0  0  0  0  0  0  0  0
    1.6067   -3.7553   -0.2841 H   0  0  0  0  0  0  0  0  0  0  0  0
    2.9205   -1.0322    1.9204 H   0  0  0  0  0  0  0  0  0  0  0  0
    1.4537   -2.0434    1.6032 H   0  0  0  0  0  0  0  0  0  0  0  0
    3.0129   -2.7975    2.0491 H   0  0  0  0  0  0  0  0  0  0  0  0
    3.3234    0.6081   -0.4505 H   0  0  0  0  0  0  0  0  0  0  0  0
    2.0339    0.4032    0.7529 H   0  0  0  0  0  0  0  0  0  0  0  0
   -1.7000    1.2568    2.4409 H   0  0  0  0  0  0  0  0  0  0  0  0
   -1.0675    1.1651   -0.5685 H   0  0  0  0  0  0  0  0  0  0  0  0
   -1.8767    2.5178    0.2495 H   0  0  0  0  0  0  0  0  0  0  0  0
   -3.3101   -0.5716    1.9044 H   0  0  0  0  0  0  0  0  0  0  0  0
   -3.7693    0.9256    1.0367 H   0  0  0  0  0  0  0  0  0  0  0  0
   -0.7124   -0.8197    0.7678 H   0  0  0  0  0  0  0  0  0  0  0  0
   -3.4515   -1.1334   -2.6073 H   0  0  0  0  0  0  0  0  0  0  0  0
   -4.6909   -2.3408   -2.2079 H   0  0  0  0  0  0  0  0  0  0  0  0
   -3.0097   -2.6297   -1.7147 H   0  0  0  0  0  0  0  0  0  0  0  0
  1  2  1  0  0  0  0
  1  3  1  0  0  0  0
  1  6  1  0  0  0  0
  1  7  2  0  0  0  0
  2 14  1  0  0  0  0
  3 16  1  0  0  0  0
  4 15  1  0  0  0  0
  4 38  1  0  0  0  0
  5 17  1  0  0  0  0
  5 18  1  0  0  0  0
  8 18  2  0  0  0  0
  9 10  1  0  0  0  0
  9 11  1  0  0  0  0
  9 12  1  0  0  0  0
  9 13  1  0  0  0  0
 10 14  1  0  0  0  0
 10 20  1  0  0  0  0
 10 21  1  0  0  0  0
 11 22  1  0  0  0  0
 11 23  1  0  0  0  0
 11 24  1  0  0  0  0
 12 25  1  0  0  0  0
 12 26  1  0  0  0  0
 12 27  1  0  0  0  0
 13 28  1  0  0  0  0
 13 29  1  0  0  0  0
 13 30  1  0  0  0  0
 14 31  1  0  0  0  0
 14 32  1  0  0  0  0
 15 16  1  0  0  0  0
 15 17  1  0  0  0  0
 15 33  1  0  0  0  0
 16 34  1  0  0  0  0
 16 35  1  0  0  0  0
 17 36  1  0  0  0  0
 17 37  1  0  0  0  0
 18 19  1  0  0  0  0
 19 39  1  0  0  0  0
 19 40  1  0  0  0  0
 19 41  1  0  0  0  0
M  CHG  2   6  -1   9   1
M  END
> <PUBCHEM_COMPOUND_CID>
5311264

> <PUBCHEM_CONFORMER_RMSD>
1.2

> <PUBCHEM_CONFORMER_DIVERSEORDER>
1
23
6
19
37
46
33
44
21
11
53
49
14
9
24
12
25
42
29
5
56
61
31
38
17
40
27
34
32
43
58
7
8
48
22
45
10
20
41
18
13
54
47
28
30
15
2
55
52
60
3
57
35
39
26
59
62
4
16
51
50
36

> <PUBCHEM_MMFF94_PARTIAL_CHARGES>
20
1 1.44
10 0.5
11 0.5
12 0.5
13 0.5
14 0.28
15 0.28
16 0.28
17 0.28
18 0.66
19 0.06
2 -0.55
3 -0.55
38 0.4
4 -0.68
5 -0.43
6 -0.95
7 -0.95
8 -0.57
9 -1.01

> <PUBCHEM_EFFECTIVE_ROTOR_COUNT>
10

> <PUBCHEM_PHARMACOPHORE_FEATURES>
6
1 4 acceptor
1 4 donor
1 6 acceptor
1 7 acceptor
1 8 acceptor
1 9 cation

> <PUBCHEM_HEAVY_ATOM_COUNT>
19

> <PUBCHEM_ATOM_DEF_STEREO_COUNT>
1

> <PUBCHEM_ATOM_UDEF_STEREO_COUNT>
0

> <PUBCHEM_BOND_DEF_STEREO_COUNT>
0

> <PUBCHEM_BOND_UDEF_STEREO_COUNT>
0

> <PUBCHEM_ISOTOPIC_ATOM_COUNT>
0

> <PUBCHEM_COMPONENT_COUNT>
1

> <PUBCHEM_CACTVS_TAUTO_COUNT>
1

> <PUBCHEM_CONFORMER_ID>
00510B2000000001

> <PUBCHEM_MMFF94_ENERGY>
38.2712

> <PUBCHEM_FEATURE_SELFOVERLAP>
30.458

> <PUBCHEM_SHAPE_FINGERPRINT>
11552529 35 17842837716397727770
12553582 1 18264509315920987394
12633257 1 14836110066327848743
13004483 165 18122900924008958955
13083527 12 18339065060786300560
13931106 250 17760356704498688668
14251757 17 16081090355075863999
15099037 8 18343588434400793481
15415430 10 18339643339446385058
15852999 172 17826796146221883049
17818456 19 17986968366604211361
20291156 8 18341052912983948255
20621476 51 17688017618399919138
20645477 70 18189896590188392441
20671657 53 18408040689202898823
21452121 99 16971401517629416692
23402539 116 18264209119340310090
23419403 2 17842521155432451032
23598291 2 18269572588499572769
238 59 18117288161972925787
257057 1 18265054639386628592
58143232 49 18341335487677813654
6338986 31 18338801104553701336

> <PUBCHEM_SHAPE_MULTIPOLES>
348.79
7.97
4.24
1.49
5.3
2.12
-0.08
-8.07
0.99
-3.18
1.29
0.72
-0.11
-1.39

> <PUBCHEM_SHAPE_SELFOVERLAP>
646.092

> <PUBCHEM_SHAPE_VOLUME>
222.1

> <PUBCHEM_COORDINATE_TYPE>
2
5
10

$$$$
