6451618
  -OEChem-06132511503D

 26 27  0     1  0  0  0  0  0999 V2000
    0.4922    0.3255    0.2499 C   0  0  1  0  0  0  0  0  0  0  0  0
   -0.7254    0.7622   -0.5428 C   0  0  2  0  0  0  0  0  0  0  0  0
   -0.0809    1.7051    0.4342 C   0  0  0  0  0  0  0  0  0  0  0  0
    0.0676   -0.8412    1.1173 C   0  0  0  0  0  0  0  0  0  0  0  0
    1.8057    0.2045   -0.4397 C   0  0  0  0  0  0  0  0  0  0  0  0
   -1.7992   -0.1526   -0.1069 C   0  0  0  0  0  0  0  0  0  0  0  0
   -1.3925   -1.0556    0.8043 C   0  0  0  0  0  0  0  0  0  0  0  0
    2.9702    0.0676    0.5602 C   0  0  0  0  0  0  0  0  0  0  0  0
    1.8358   -0.9882   -1.4152 C   0  0  0  0  0  0  0  0  0  0  0  0
   -3.1736   -0.0275   -0.6612 C   0  0  0  0  0  0  0  0  0  0  0  0
   -0.6273    0.9506   -1.6035 H   0  0  0  0  0  0  0  0  0  0  0  0
    0.4550    2.5555    0.0277 H   0  0  0  0  0  0  0  0  0  0  0  0
   -0.5961    1.9301    1.3614 H   0  0  0  0  0  0  0  0  0  0  0  0
    0.1938   -0.5926    2.1766 H   0  0  0  0  0  0  0  0  0  0  0  0
    0.6171   -1.7642    0.9163 H   0  0  0  0  0  0  0  0  0  0  0  0
    1.9946    1.1079   -1.0351 H   0  0  0  0  0  0  0  0  0  0  0  0
   -2.0098   -1.8153    1.2596 H   0  0  0  0  0  0  0  0  0  0  0  0
    2.8961   -0.8535    1.1476 H   0  0  0  0  0  0  0  0  0  0  0  0
    3.9309    0.0571    0.0348 H   0  0  0  0  0  0  0  0  0  0  0  0
    2.9751    0.9100    1.2602 H   0  0  0  0  0  0  0  0  0  0  0  0
    1.7830   -1.9521   -0.9006 H   0  0  0  0  0  0  0  0  0  0  0  0
    2.7660   -0.9786   -1.9942 H   0  0  0  0  0  0  0  0  0  0  0  0
    1.0031   -0.9396   -2.1243 H   0  0  0  0  0  0  0  0  0  0  0  0
   -3.5820    0.9651   -0.4465 H   0  0  0  0  0  0  0  0  0  0  0  0
   -3.8523   -0.7715   -0.2316 H   0  0  0  0  0  0  0  0  0  0  0  0
   -3.1614   -0.1692   -1.7466 H   0  0  0  0  0  0  0  0  0  0  0  0
  1  2  1  0  0  0  0
  1  3  1  0  0  0  0
  1  4  1  0  0  0  0
  1  5  1  0  0  0  0
  2  3  1  0  0  0  0
  2  6  1  0  0  0  0
  2 11  1  0  0  0  0
  3 12  1  0  0  0  0
  3 13  1  0  0  0  0
  4  7  1  0  0  0  0
  4 14  1  0  0  0  0
  4 15  1  0  0  0  0
  5  8  1  0  0  0  0
  5  9  1  0  0  0  0
  5 16  1  0  0  0  0
  6  7  2  0  0  0  0
  6 10  1  0  0  0  0
  7 17  1  0  0  0  0
  8 18  1  0  0  0  0
  8 19  1  0  0  0  0
  8 20  1  0  0  0  0
  9 21  1  0  0  0  0
  9 22  1  0  0  0  0
  9 23  1  0  0  0  0
 10 24  1  0  0  0  0
 10 25  1  0  0  0  0
 10 26  1  0  0  0  0
M  END
> <PUBCHEM_COMPOUND_CID>
6451618

> <PUBCHEM_CONFORMER_RMSD>
0.4

> <PUBCHEM_CONFORMER_DIVERSEORDER>
1
4
5
6
3
2

> <PUBCHEM_MMFF94_PARTIAL_CHARGES>
12
1 -0.19
10 0.14
11 0.1
12 0.1
13 0.1
17 0.15
2 -0.06
3 -0.2
4 0.23
5 0.09
6 -0.18
7 -0.29

> <PUBCHEM_EFFECTIVE_ROTOR_COUNT>
1.4

> <PUBCHEM_PHARMACOPHORE_FEATURES>
2
3 5 8 9 hydrophobe
6 1 2 3 4 6 7 rings

> <PUBCHEM_HEAVY_ATOM_COUNT>
10

> <PUBCHEM_ATOM_DEF_STEREO_COUNT>
1

> <PUBCHEM_ATOM_UDEF_STEREO_COUNT>
1

> <PUBCHEM_BOND_DEF_STEREO_COUNT>
0

> <PUBCHEM_BOND_UDEF_STEREO_COUNT>
0

> <PUBCHEM_ISOTOPIC_ATOM_COUNT>
0

> <PUBCHEM_COMPONENT_COUNT>
1

> <PUBCHEM_CACTVS_TAUTO_COUNT>
1

> <PUBCHEM_CONFORMER_ID>
006271A200000001

> <PUBCHEM_MMFF94_ENERGY>
24.8805

> <PUBCHEM_FEATURE_SELFOVERLAP>
10.148

> <PUBCHEM_SHAPE_FINGERPRINT>
11062470 55 18272083915790756200
12423570 1 12303441780926837308
13024252 1 17967820431107662600
16945 1 18041287594752105289
20201158 50 18411982464063321102
20653085 51 15357709581987547038
20711985 344 18122921836400090332
21040471 1 17604137212230090571
23402539 116 18337935840410587916
23552423 10 18265064530659232286
23559900 14 18187076283377267568
2748010 2 17898292963838974209
29004967 10 18059863886653047344
369184 2 18187363238004234496
4369600 1 18336533967564854441
5084963 1 14345792759856691725
68250623 7 17699857219731188149

> <PUBCHEM_SHAPE_MULTIPOLES>
205.8
3.76
1.26
1.16
0.25
0.27
0.12
-0.44
0.69
0.03
-0.13
-0.25
-0.31
0.38

> <PUBCHEM_SHAPE_SELFOVERLAP>
423.417

> <PUBCHEM_SHAPE_VOLUME>
122.4

> <PUBCHEM_COORDINATE_TYPE>
2
5
10

$$$$
